version 2
run General-2-20190128-13:14:58-4673
attr configname General
attr datetime 20190128-13:14:58
attr experiment General
attr inifile omnetpp.ini
attr iterationvars ""
attr iterationvarsf ""
attr measurement ""
attr network com.liborio.slicing.SlicingScenario
attr processid 4673
attr repetition 2
attr replication #2
attr resultdir results
attr runnumber 2
attr seedset 2
param **.debug false
param **.coreDebug false
param *.playgroundSizeX 600m
param *.playgroundSizeY 600m
param *.playgroundSizeZ 50m
param *.annotations.draw true
param *.manager.updateInterval 0.4s
param *.manager.host "\"localhost\""
param *.manager.port 9999
param *.manager.autoShutdown true
param *.manager.launchConfig "xmldoc(\"highway.launchd.xml\")"
param *.rsu[0].mobility.x 275.0
param *.rsu[0].mobility.y 23.0
param *.rsu[0].mobility.z 3
param *.rsu[*].applType "\"RSUApp\""
param *.rsu[*].appl.headerLength "80 bit"
param *.rsu[*].appl.sendBeacons false
param *.rsu[*].appl.dataOnSch true
param *.rsu[*].appl.beaconInterval 1s
param *.rsu[*].appl.beaconUserPriority 7
param *.rsu[*].appl.dataUserPriority 5
param *.connectionManager.sendDirect true
param *.connectionManager.maxInterfDist 2600m
param *.connectionManager.drawMaxIntfDist false
param *.**.nic.mac1609_4.useServiceChannel true
param *.**.nic.mac1609_4.txPower 20mW
param *.**.nic.mac1609_4.bitrate 6Mbps
param *.**.nic.phy80211p.sensitivity -89dBm
param *.**.nic.phy80211p.useThermalNoise true
param *.**.nic.phy80211p.thermalNoise -110dBm
param *.**.nic.phy80211p.decider "xmldoc(\"config.xml\")"
param *.**.nic.phy80211p.analogueModels "xmldoc(\"config.xml\")"
param *.**.nic.phy80211p.usePropagationDelay true
param *.**.nic.phy80211p.antenna "xmldoc(\"antenna.xml\", \"/root/Antenna[@id='monopole']\")"
param *.node[*].applType "\"VehApp\""
param *.node[*].appl.headerLength "80 bit"
param *.node[*].appl.sendBeacons true
param *.node[*].appl.dataOnSch true
param *.node[*].appl.beaconInterval 1s
param *.node[*].appl.wsaInterval 1s
param *.node[*].veinsmobilityType.debug true
param *.node[*].veinsmobility.x 0
param *.node[*].veinsmobility.y 0
param *.node[*].veinsmobility.z 1.895

vector 0 SlicingScenario.node[0].veinsmobility posx ETV
vector 1 SlicingScenario.node[0].veinsmobility posy ETV
vector 2 SlicingScenario.node[0].veinsmobility speed ETV
vector 3 SlicingScenario.node[0].veinsmobility acceleration ETV
vector 4 SlicingScenario.node[0].veinsmobility co2emission ETV
4	58	1.2	1.9851722103765
4	75	1.6	0.973
4	190	2	2.2697847185539
4	367	2.4	1.2332870577146
4	468	2.8	2.4460866632682
4	515	3.2	1.6990711474104
4	547	3.6	1.8512569785953
4	595	4	1.9002340773741
4	627	4.4	1.7541551106371
4	674	4.8	2.0049281357536
4	721	5.2	1.7022717790421
4	781	5.6	0.973
4	843	6	1.8678299184161
4	889	6.4	2.4376765107191
4	978	6.8	1.5284162257243
4	1039	7.2	1.5184587479248
4	1099	7.6	2.0591485231911
4	1189	8	1.2779592831387
4	1249	8.4	1.7777946062537
4	1324	8.8	1.4992457149655
4	1399	9.2	2.1472644624693
4	1459	9.6	1.5579430690775
4	1535	10	2.5028675373237
4	1609	10.4	1.2815295461773
4	1684	10.8	1.7442739713953
4	1759	11.2	1.6660079811405
4	1853	11.6	2.3064603728905
4	1957	12	0.973
4	2031	12.4	1.6731986379821
4	2134	12.8	2.4703977624464
4	2209	13.2	0.973
4	2283	13.6	2.1716329005121
4	2387	14	1.8334653674251
4	2461	14.4	1.8814558013071
4	2564	14.8	1.1796654974519
4	2659	15.2	2.6632572648186
4	2775	15.6	1.9014422931026
4	2879	16	0.973
4	2974	16.4	2.3803734090626
4	3104	16.8	2.0450169354315
4	3193	17.2	2.0814199431925
4	3281	17.6	1.4714527668541
4	3371	18	1.5792733864097
4	3445	18.4	2.1874371159557
4	3534	18.8	1.7973151823911
4	3609	19.2	1.6559522613788
4	3683	19.6	1.8434182799708
4	3773	20	1.277384332971
4	3847	20.4	1.627142653972
4	3936	20.8	1.8043909404312
4	4033	21.2	2.2219034430381
4	4135	21.6	1.7745459167365
4	4225	22	1.9243790674523
4	4313	22.4	0.973
4	4402	22.8	2.4986430178228
4	4477	23.2	1.2901787458113
4	4565	23.6	2.0694994839442
4	4655	24	2.0127857973176
4	4729	24.4	1.3667448417221
4	4832	24.8	1.8999958551338
4	4907	25.2	1.9903703536989
4	4981	25.6	1.410587805136
4	5092	26	1.5348606001042
4	5206	26.4	1.7435564889899
4	5295	26.8	1.9918883640588
4	5384	27.2	1.3505126707151
4	5458	27.6	2.1461883445371
4	5548	28	1.5529816528854
4	5636	28.4	2.1334149008944
4	5725	28.8	1.4631647963043
4	5800	29.2	1.5212837811506
4	5888	29.6	1.4970973539877
4	5992	30	2.3073873825705
4	6080	30.4	2.3858564222532
4	6190	30.8	1.7128056716653
4	6320	31.2	1.7885183943191
4	6408	31.6	0.973
4	6518	32	1.5589162977745
4	6620	32.4	1.6091450349284
4	6723	32.8	2.367838181039
4	6817	33.2	1.7770411265147
4	6920	33.6	2.1460885486179
4	7030	34	0.973
4	7141	34.4	1.6199633542523
4	7278	34.8	2.6340479289302
4	7382	35.2	1.8024724500615
4	7478	35.6	1.4295972644577
4	7623	36	2.1793338590667
4	7711	36.4	1.5413412709921
4	7814	36.8	1.2558997710771
4	7903	37.2	2.2601199155823
4	7977	37.6	1.8773166635497
4	8081	38	1.2016737123
4	8155	38.4	2.1747560136803
4	8244	38.8	1.6739901313596
4	8333	39.2	2.1163811785319
4	8407	39.6	0.973
4	8497	40	1.9647848520413
4	8592	40.4	2.1003931758073
4	8722	40.8	1.4032106202092
4	8797	41.2	2.7498540639439
4	8885	41.6	0.973
4	8975	42	2.5402859867487
4	9049	42.4	0.973
4	9152	42.8	1.7218209941447
4	9227	43.2	2.2094340584052
4	9301	43.6	1.9106257996757
4	9405	44	2.0160438161073
4	9479	44.4	2.0314979577373
4	9568	44.8	0.973
4	9664	45.2	2.4342316105928
3	58	1.2	0.079577926779169
3	75	1.6	-0.45280731783715
3	190	2	0.19093919382431
3	367	2.4	-0.19903406745289
3	468	2.8	0.25620410882402
3	515	3.2	-0.02471335150767
3	547	3.6	0.032190647325478
3	595	4	0.04991568264086
3	627	4.4	-0.0048991920193675
3	674	4.8	0.087954072398135
3	721	5.2	-0.025110980262983
3	781	5.6	-0.24710702663287
3	843	6	0.039795859484002
3	889	6.4	0.24966021324508
3	978	6.8	-0.089852066710594
3	1039	7.2	-0.092760618776082
3	1099	7.6	0.1091743191937
3	1189	8	-0.18295522709377
3	1249	8.4	0.0058019487187266
3	1324	8.8	-0.098546444438399
3	1399	9.2	0.14454231585842
3	1459	9.6	-0.076941952342167
3	1535	10	0.27422302635387
3	1609	10.4	-0.1819906126475
3	1684	10.8	-0.0075084751006216
3	1759	11.2	-0.036609430564569
3	1853	11.6	0.20117855805438
3	1957	12	-0.26765718404203
3	2031	12.4	-0.032790458295495
3	2134	12.8	0.26341853302438
3	2209	13.2	-0.29773860471323
3	2283	13.6	0.1538839872228
3	2387	14	0.025985238025896
3	2461	14.4	0.043464503949506
3	2564	14.8	-0.21962682937738
3	2659	15.2	0.33478843374178
3	2775	15.6	0.048669576412066
3	2879	16	-0.44499346835073
3	2974	16.4	0.23219315940514
3	3104	16.8	0.10411386447958
3	3193	17.2	0.11586592812091
3	3281	17.6	-0.11129115812946
3	3371	18	-0.070126755628732
3	3445	18.4	0.1559645042289
3	3534	18.8	0.0098312005866319
3	3609	19.2	-0.04259805788752
3	3683	19.6	0.027283532777802
3	3773	20	-0.1835648980923
3	3847	20.4	-0.051227770047264
3	3936	20.8	0.015490088844672
3	4033	21.2	0.16987656359561
3	4135	21.6	0.0020884179975855
3	4225	22	0.057444741250947
3	4313	22.4	-0.33027274592314
3	4402	22.8	0.27359248511493
3	4477	23.2	-0.17850093194284
3	4565	23.6	0.11374089238234
3	4655	24	0.091001485474407
3	4729	24.4	-0.14998208533507
3	4832	24.8	0.050158058060332
3	4907	25.2	0.082864071009681
3	4981	25.6	-0.1334651777288
3	5092	26	-0.085866571986113
3	5206	26.4	-0.0069297278532776
3	5295	26.8	0.085598175181074
3	5384	27.2	-0.15500995563343
3	5458	27.6	0.14392651303206
3	5548	28	-0.078912539291198
3	5636	28.4	0.13808457250707
3	5725	28.8	-0.11306852160487
3	5800	29.2	-0.090303879464049
3	5888	29.6	-0.098607272142544
3	5992	30	0.20542390702758
3	6080	30.4	0.23025969183073
3	6190	30.8	-0.021406902000307
3	6320	31.2	0.0068669114261866
3	6408	31.6	-0.27609378157649
3	6518	32	-0.075764344772327
3	6620	32.4	-0.056135024642572
3	6723	32.8	0.22751260129735
3	6817	33.2	0.0047587578883412
3	6920	33.6	0.14136922208126
3	7030	34	-0.3361250696471
3	7141	34.4	-0.05187311640475
3	7278	34.8	0.32582631777041
3	7382	35.2	0.01315808761865
3	7478	35.6	-0.12592332321219
3	7623	36	0.15420547826216
3	7711	36.4	-0.08440639660694
3	7814	36.8	-0.19081466039642
3	7903	37.2	0.18621401139535
3	7977	37.6	0.041535944445057
3	8081	38	-0.21144190733321
3	8155	38.4	0.15435834822711
3	8244	38.8	-0.033880842500369
3	8333	39.2	0.13071546156425
3	8407	39.6	-0.33978448447306
3	8497	40	0.07777091674507
3	8592	40.4	0.12699611671269
3	8722	40.8	-0.13496513071004
3	8797	41.2	0.36602174805012
3	8885	41.6	-0.43299775128253
3	8975	42	0.29087401379365
3	9049	42.4	-0.22827111964579
3	9152	42.8	-0.013982933480294
3	9227	43.2	0.167855690117
3	9301	43.6	0.054432036820797
3	9405	44	0.092638446833009
3	9479	44.4	0.09689789416734
3	9568	44.8	-0.35971452342346
3	9664	45.2	0.2497270880267
2	40	0.8	11.072983583705
2	58	1.2	11.104814754417
2	75	1.6	10.923691827282
2	190	2	11.000067504812
2	367	2.4	10.920453877831
2	468	2.8	11.02293552136
2	515	3.2	11.013050180757
2	547	3.6	11.025926439688
2	595	4	11.045892712744
2	627	4.4	11.043933035936
2	674	4.8	11.079114664895
2	721	5.2	11.06907027279
2	781	5.6	10.970227462137
2	843	6	10.986145805931
2	889	6.4	11.086009891229
2	978	6.8	11.050069064545
2	1039	7.2	11.012964817034
2	1099	7.6	11.056634544712
2	1189	8	10.983452453874
2	1249	8.4	10.985773233362
2	1324	8.8	10.946354655586
2	1399	9.2	11.00417158193
2	1459	9.6	10.973394800993
2	1535	10	11.083084011534
2	1609	10.4	11.010287766475
2	1684	10.8	11.007284376435
2	1759	11.2	10.992640604209
2	1853	11.6	11.073112027431
2	1957	12	10.966049153814
2	2031	12.4	10.952932970496
2	2134	12.8	11.058300383706
2	2209	13.2	10.93920494182
2	2283	13.6	11.000758536709
2	2387	14	11.01115263192
2	2461	14.4	11.0285384335
2	2564	14.8	10.940687701749
2	2659	15.2	11.074603075245
2	2775	15.6	11.09407090581
2	2879	16	10.91607351847
2	2974	16.4	11.008950782232
2	3104	16.8	11.050596328024
2	3193	17.2	11.096942699272
2	3281	17.6	11.05242623602
2	3371	18	11.024375533769
2	3445	18.4	11.08676133546
2	3534	18.8	11.090693815695
2	3609	19.2	11.07365459254
2	3683	19.6	11.084568005651
2	3773	20	11.011142046414
2	3847	20.4	10.990650938395
2	3936	20.8	10.996846973933
2	4033	21.2	11.064797599372
2	4135	21.6	11.065632966571
2	4225	22	11.088610863071
2	4313	22.4	10.956501764702
2	4402	22.8	11.065938758748
2	4477	23.2	10.994538385971
2	4565	23.6	11.040034742923
2	4655	24	11.076435337113
2	4729	24.4	11.016442502979
2	4832	24.8	11.036505726203
2	4907	25.2	11.069651354607
2	4981	25.6	11.016265283516
2	5092	26	10.981918654721
2	5206	26.4	10.97914676358
2	5295	26.8	11.013386033652
2	5384	27.2	10.951382051399
2	5458	27.6	11.008952656612
2	5548	28	10.977387640895
2	5636	28.4	11.032621469898
2	5725	28.8	10.987394061256
2	5800	29.2	10.951272509471
2	5888	29.6	10.911829600614
2	5992	30	10.993999163425
2	6080	30.4	11.086103040157
2	6190	30.8	11.077540279357
2	6320	31.2	11.080287043927
2	6408	31.6	10.969849531297
2	6518	32	10.939543793388
2	6620	32.4	10.917089783531
2	6723	32.8	11.00809482405
2	6817	33.2	11.009998327205
2	6920	33.6	11.066546016037
2	7030	34	10.932095988179
2	7141	34.4	10.911346741617
2	7278	34.8	11.041677268725
2	7382	35.2	11.046940503772
2	7478	35.6	10.996571174487
2	7623	36	11.058253365792
2	7711	36.4	11.02449080715
2	7814	36.8	10.948164942991
2	7903	37.2	11.022650547549
2	7977	37.6	11.039264925327
2	8081	38	10.954688162394
2	8155	38.4	11.016431501685
2	8244	38.8	11.002879164685
2	8333	39.2	11.05516534931
2	8407	39.6	10.919251555521
2	8497	40	10.950359922219
2	8592	40.4	11.001158368904
2	8722	40.8	10.94717231662
2	8797	41.2	11.09358101584
2	8885	41.6	10.920381915327
2	8975	42	11.036731520845
2	9049	42.4	10.945423072986
2	9152	42.8	10.939829899594
2	9227	43.2	11.006972175641
2	9301	43.6	11.028744990369
2	9405	44	11.065800369103
2	9479	44.4	11.104559526769
2	9568	44.8	10.9606737174
2	9664	45.2	11.060564552611
1	9	0.4	36.55
1	40	0.8	36.55
1	58	1.2	36.55
1	75	1.6	36.55
1	190	2	36.55
1	367	2.4	36.55
1	468	2.8	36.55
1	515	3.2	36.55
1	547	3.6	36.55
1	595	4	36.55
1	627	4.4	36.55
1	674	4.8	36.55
1	721	5.2	36.55
1	781	5.6	36.55
1	843	6	36.55
1	889	6.4	36.55
1	978	6.8	36.55
1	1039	7.2	36.55
1	1099	7.6	36.55
1	1189	8	36.55
1	1249	8.4	36.55
1	1324	8.8	36.55
1	1399	9.2	36.55
1	1459	9.6	36.55
1	1535	10	36.55
1	1609	10.4	36.55
1	1684	10.8	36.55
1	1759	11.2	36.55
1	1853	11.6	36.55
1	1957	12	36.55
1	2031	12.4	36.55
1	2134	12.8	36.55
1	2209	13.2	36.55
1	2283	13.6	36.55
1	2387	14	36.55
1	2461	14.4	36.55
1	2564	14.8	36.55
1	2659	15.2	36.55
1	2775	15.6	36.55
1	2879	16	36.55
1	2974	16.4	36.55
1	3104	16.8	36.55
1	3193	17.2	36.55
1	3281	17.6	36.55
1	3371	18	36.55
1	3445	18.4	36.55
1	3534	18.8	36.55
1	3609	19.2	36.55
1	3683	19.6	36.55
1	3773	20	36.55
1	3847	20.4	36.55
1	3936	20.8	36.55
1	4033	21.2	36.55
1	4135	21.6	36.55
1	4225	22	36.55
1	4313	22.4	36.55
1	4402	22.8	36.55
1	4477	23.2	36.55
1	4565	23.6	36.55
1	4655	24	36.55
1	4729	24.4	36.55
1	4832	24.8	36.55
1	4907	25.2	36.55
1	4981	25.6	36.55
1	5092	26	36.55
1	5206	26.4	36.55
1	5295	26.8	36.55
1	5384	27.2	36.55
1	5458	27.6	36.55
1	5548	28	36.55
1	5636	28.4	36.55
1	5725	28.8	36.55
1	5800	29.2	36.55
1	5888	29.6	36.55
1	5992	30	36.55
1	6080	30.4	36.55
1	6190	30.8	36.55
1	6320	31.2	36.55
1	6408	31.6	36.55
1	6518	32	36.55
1	6620	32.4	36.55
1	6723	32.8	36.55
1	6817	33.2	36.55
1	6920	33.6	36.55
1	7030	34	36.55
1	7141	34.4	36.55
1	7278	34.8	36.55
1	7382	35.2	36.55
1	7478	35.6	36.55
1	7623	36	36.55
1	7711	36.4	36.55
1	7814	36.8	36.55
1	7903	37.2	36.55
1	7977	37.6	36.55
1	8081	38	36.55
1	8155	38.4	36.55
1	8244	38.8	36.55
1	8333	39.2	36.55
1	8407	39.6	36.55
1	8497	40	36.55
1	8592	40.4	36.55
1	8722	40.8	36.55
1	8797	41.2	36.55
1	8885	41.6	36.55
1	8975	42	36.55
1	9049	42.4	36.55
1	9152	42.8	36.55
1	9227	43.2	36.55
1	9301	43.6	36.55
1	9405	44	36.55
1	9479	44.4	36.55
1	9568	44.8	36.55
1	9664	45.2	36.55
0	9	0.4	28.528
0	40	0.8	28.528
0	58	1.2	32.868609564813
0	75	1.6	37.221696948544
0	190	2	41.503784144839
0	367	2.4	45.815810606725
0	468	2.8	50.096628526835
0	515	3.2	54.417619251208
0	547	3.6	58.734734922065
0	595	4	63.056898086423
0	627	4.4	67.386888029818
0	674	4.8	71.716109779905
0	721	5.2	76.059122728544
0	781	5.6	80.398198275478
0	843	6	84.698527440636
0	889	6.4	89.005096596561
0	978	6.8	93.350812473922
0	1039	7.2	97.682439547224
0	1099	7.6	101.9995217555
0	1189	8	106.33372249703
0	1249	8.4	110.63923585895
0	1324	8.8	114.94565896642
0	1399	9.2	119.23662999141
0	1459	9.6	123.55026525153
0	1535	10	127.85183601352
0	1609	10.4	132.19640494604
0	1684	10.8	136.5124377505
0	1759	11.2	140.82729322606
0	1853	11.6	145.13640834291
0	1957	12	149.47706825766
0	2031	12.4	153.77575952596
0	2134	12.8	158.06930925039
0	2209	13.2	162.40416300081
0	2283	13.6	166.692331338
0	2387	14	171.00462868439
0	2461	14.4	175.3210005161
0	2564	14.8	179.64418758203
0	2659	15.2	183.93293716112
0	2775	15.6	188.27418156662
0	2879	16	192.62305736169
0	2974	16.4	196.90215818093
0	3104	16.8	201.21766688757
0	3193	17.2	205.54950064815
0	3281	17.6	209.89950218627
0	3371	18	214.23205327079
0	3445	18.4	218.55360848003
0	3534	18.8	222.89961892353
0	3609	19.2	227.24717089928
0	3683	19.6	231.58804349956
0	3773	20	235.93319415777
0	3847	20.4	240.24956183997
0	3936	20.8	244.55789700782
0	4033	21.2	248.8686610216
0	4135	21.6	253.20606168055
0	4225	22	257.54378980345
0	4313	22.4	261.89052526177
0	4402	22.8	266.18547395353
0	4477	23.2	270.52332194696
0	4565	23.6	274.83318099426
0	4655	24	279.16087461349
0	4729	24.4	283.50283726564
0	4832	24.8	287.82128272681
0	4907	25.2	292.14759297148
0	4981	25.6	296.48689630248
0	5092	26	300.80527229362
0	5206	26.4	305.11018440627
0	5295	26.8	309.4140099376
0	5384	27.2	313.73125726279
0	5458	27.6	318.02419902694
0	5548	28	322.33970846833
0	5636	28.4	326.64284442356
0	5725	28.8	330.96763203976
0	5800	29.2	335.27469051177
0	5888	29.6	339.56758933548
0	5992	30	343.84502653892
0	6080	30.4	348.15467421099
0	6190	30.8	352.50042660273
0	6320	31.2	356.84282239224
0	6408	31.6	361.18629491346
0	6518	32	365.48647592972
0	6620	32.4	369.77477709673
0	6723	32.8	374.05427629188
0	6817	33.2	378.3694494629
0	6920	33.6	382.68536880717
0	7030	34	387.02345484545
0	7141	34.4	391.30883647282
0	7278	34.8	395.58608439553
0	7382	35.2	399.91442188487
0	7478	35.6	404.24482256235
0	7623	36	408.55547846275
0	7711	36.4	412.89031378214
0	7814	36.8	417.21191417855
0	7903	37.2	421.5035948362
0	7977	37.6	425.82447385084
0	8081	38	430.15186570157
0	8155	38.4	434.44610346122
0	8244	38.8	438.76454460988
0	8333	39.2	443.07767324244
0	8407	39.6	447.41129805937
0	8497	40	451.69164466913
0	8592	40.4	455.98418575864
0	8722	40.8	460.29663983925
0	8797	41.2	464.58793138737
0	8885	41.6	468.93661514558
0	8975	42	473.21740485639
0	9049	42.4	477.54380361256
0	9152	42.8	481.83440945717
0	9227	43.2	486.12282277781
0	9301	43.6	490.43755587066
0	9405	44	494.76082390689
0	9479	44.4	499.09861765157
0	9568	44.8	503.45160498607
0	9664	45.2	507.74818908329

