version 2
run General-9-20190128-13:10:56-4382
attr configname General
attr datetime 20190128-13:10:56
attr experiment General
attr inifile omnetpp.ini
attr iterationvars ""
attr iterationvarsf ""
attr measurement ""
attr network com.liborio.slicing.SlicingScenario
attr processid 4382
attr repetition 9
attr replication #9
attr resultdir results
attr runnumber 9
attr seedset 9
param **.debug false
param **.coreDebug false
param *.playgroundSizeX 600m
param *.playgroundSizeY 600m
param *.playgroundSizeZ 50m
param *.annotations.draw true
param *.manager.updateInterval 0.4s
param *.manager.host "\"localhost\""
param *.manager.port 9999
param *.manager.autoShutdown true
param *.manager.launchConfig "xmldoc(\"highway.launchd.xml\")"
param *.rsu[0].mobility.x 275.0
param *.rsu[0].mobility.y 23.0
param *.rsu[0].mobility.z 3
param *.rsu[*].applType "\"RSUApp\""
param *.rsu[*].appl.headerLength "80 bit"
param *.rsu[*].appl.sendBeacons false
param *.rsu[*].appl.dataOnSch true
param *.rsu[*].appl.beaconInterval 1s
param *.rsu[*].appl.beaconUserPriority 7
param *.rsu[*].appl.dataUserPriority 5
param *.connectionManager.sendDirect true
param *.connectionManager.maxInterfDist 2600m
param *.connectionManager.drawMaxIntfDist false
param *.**.nic.mac1609_4.useServiceChannel true
param *.**.nic.mac1609_4.txPower 20mW
param *.**.nic.mac1609_4.bitrate 6Mbps
param *.**.nic.phy80211p.sensitivity -89dBm
param *.**.nic.phy80211p.useThermalNoise true
param *.**.nic.phy80211p.thermalNoise -110dBm
param *.**.nic.phy80211p.decider "xmldoc(\"config.xml\")"
param *.**.nic.phy80211p.analogueModels "xmldoc(\"config.xml\")"
param *.**.nic.phy80211p.usePropagationDelay true
param *.**.nic.phy80211p.antenna "xmldoc(\"antenna.xml\", \"/root/Antenna[@id='monopole']\")"
param *.node[*].applType "\"VehApp\""
param *.node[*].appl.headerLength "80 bit"
param *.node[*].appl.sendBeacons true
param *.node[*].appl.dataOnSch true
param *.node[*].appl.beaconInterval 1s
param *.node[*].appl.wsaInterval 1s
param *.node[*].veinsmobilityType.debug true
param *.node[*].veinsmobility.x 0
param *.node[*].veinsmobility.y 0
param *.node[*].veinsmobility.z 1.895

vector 0 SlicingScenario.node[0].veinsmobility posx ETV
vector 1 SlicingScenario.node[0].veinsmobility posy ETV
vector 2 SlicingScenario.node[0].veinsmobility speed ETV
vector 3 SlicingScenario.node[0].veinsmobility acceleration ETV
vector 4 SlicingScenario.node[0].veinsmobility co2emission ETV
4	58	1.2	1.5820825872888
4	75	1.6	1.7680694037085
4	108	2	1.7689376899319
4	196	2.4	2.4260358769679
4	228	2.8	1.6017645254238
4	276	3.2	1.5246344049468
4	308	3.6	2.0027861576746
4	356	4	1.9447844135774
4	388	4.4	1.4953497638508
4	420	4.8	0.973
4	468	5.2	2.3752266615388
4	500	5.6	2.1455968906145
4	548	6	1.6211740715345
4	580	6.4	1.9165567984131
4	612	6.8	1.844166578221
4	716	7.2	1.3516358840751
4	748	7.6	1.8339825339631
4	796	8	1.5665967664574
4	828	8.4	2.2075124357908
4	860	8.8	1.5691837697188
4	908	9.2	0.973
4	940	9.6	2.4374780119742
4	988	10	0.973
4	1020	10.4	2.04633137729
4	1052	10.8	2.7029923187191
4	1100	11.2	0.973
4	1132	11.6	2.116484480584
4	1236	12	1.7578938510148
4	1268	12.4	1.9338628058496
4	1300	12.8	2.3544541854518
4	1348	13.2	0.973
4	1380	13.6	2.7880218190401
4	1428	14	0.973
4	1460	14.4	1.3834828395979
4	1492	14.8	2.2977885564149
4	1540	15.2	1.7566303696145
4	1572	15.6	1.5636627026571
4	1620	16	1.4401801492331
4	1652	16.4	2.5065461527125
4	1740	16.8	1.4405676414985
4	1788	17.2	1.6754538723306
4	1820	17.6	1.9350503618884
4	1868	18	1.4162014039602
4	1900	18.4	2.0073505100114
4	1932	18.8	1.9958339457541
4	1980	19.2	1.3648482513987
4	2012	19.6	1.5262464997735
4	2060	20	2.5181651573265
4	2092	20.4	1.1940577248426
4	2124	20.8	1.7186638479955
4	2172	21.2	1.5605049189234
4	2260	21.6	2.9453281909626
4	2308	22	1.6828433920585
4	2340	22.4	1.8920653381581
4	2372	22.8	1.1781970088587
4	2420	23.2	2.3777854689534
4	2452	23.6	0.973
4	2500	24	2.3676982866687
4	2532	24.4	1.5521775811851
4	2564	24.8	2.3561090030931
4	2612	25.2	0.973
4	2644	25.6	1.6727080610575
4	2692	26	1.6967250431166
4	2780	26.4	1.7437347627491
4	2812	26.8	2.8304203536997
4	2860	27.2	0.973
4	2892	27.6	2.3371268105422
4	2940	28	1.3144746151972
4	2972	28.4	1.374011653731
4	3004	28.8	1.8639672110642
4	3052	29.2	1.6103434737521
4	3084	29.6	2.9216545049325
4	3132	30	0.973
4	3164	30.4	1.9989342351483
4	3196	30.8	2.0773815164356
4	3300	31.2	2.13557564681
4	3332	31.6	1.2485501049808
4	3380	32	2.1750862521376
4	3412	32.4	0.973
4	3444	32.8	1.9987905685885
4	3492	33.2	1.6830193073063
4	3524	33.6	1.6337705740392
4	3572	34	1.9184557484817
4	3604	34.4	2.2214312492609
4	3636	34.8	1.3731057382749
4	3684	35.2	0.973
4	3716	35.6	1.7959446429722
4	3820	36	1.6141596108576
4	3852	36.4	2.8254083238705
4	3884	36.8	0.973
4	3932	37.2	2.0813993907938
4	3964	37.6	2.1581685461494
4	4012	38	1.3503414778068
4	4044	38.4	2.3194780042369
4	4076	38.8	0.973
4	4124	39.2	2.5773351513739
4	4156	39.6	2.1429479657596
4	4204	40	0.973
4	4236	40.4	2.2115891645755
4	4324	40.8	2.5802608180433
4	4372	41.2	0.973
4	4404	41.6	2.3943652246432
4	4452	42	1.377926929532
4	4484	42.4	2.0104117143193
4	4516	42.8	2.0749174241882
4	4564	43.2	1.300359542813
4	4596	43.6	2.2600929569034
4	4644	44	0.973
4	4676	44.4	2.4427538724208
4	4708	44.8	1.6752734916167
4	4756	45.2	0.973
3	58	1.2	-0.068706784630197
3	75	1.6	0.0013721148716295
3	108	2	0.0016785337356851
3	196	2.4	0.24411509907805
3	228	2.8	-0.063143216422761
3	276	3.2	-0.091197389527222
3	308	3.6	0.087056609918363
3	356	4	0.064394540619106
3	388	4.4	-0.10261833167169
3	420	4.8	-0.32933126739227
3	468	5.2	0.22935651161243
3	500	5.6	0.14049068314489
3	548	6	-0.055287176975978
3	580	6.4	0.054743946646338
3	612	6.8	0.027276813169008
3	716	7.2	-0.15591309929732
3	748	7.6	0.025193604873497
3	796	8	-0.074577935738489
3	828	8.4	0.16393908159807
3	860	8.8	-0.074466258171015
3	908	9.2	-0.28142510773614
3	940	9.6	0.25230395095423
3	988	10	-0.28850642428733
3	1020	10.4	0.10815299151
3	1052	10.8	0.34795483609196
3	1100	11.2	-0.46457785204984
3	1132	11.6	0.13439834327437
3	1236	12	-0.0012205286184308
3	1268	12.4	0.064394313725642
3	1300	12.8	0.21866733813658
3	1348	13.2	-0.38129098922945
3	1380	13.6	0.38100007222965
3	1428	14	-0.26544599467889
3	1460	14.4	-0.14195409487002
3	1492	14.8	0.2014846871607
3	1540	15.2	-0.0026089514140049
3	1572	15.6	-0.074685865198263
3	1620	16	-0.12043974443805
3	1652	16.4	0.27841487026308
3	1740	16.8	-0.12153693009168
3	1788	17.2	-0.032443824457005
3	1820	17.6	0.064784484216944
3	1868	18	-0.13000037742313
3	1900	18.4	0.092651111888702
3	1932	18.8	0.086949882796032
3	1980	19.2	-0.14967496029567
3	2012	19.6	-0.08775300998241
3	2060	20	0.28265753469896
3	2092	20.4	-0.21426521404646
3	2124	20.8	-0.015278031234631
3	2172	21.2	-0.074531708494758
3	2260	21.6	0.43945064605214
3	2308	22	-0.032589152338915
3	2340	22.4	0.045160132576711
3	2372	22.8	-0.22088435804471
3	2420	23.2	0.22670757584274
3	2452	23.6	-0.43892392690759
3	2500	24	0.22726887301542
3	2532	24.4	-0.079280398320409
3	2564	24.8	0.22003681852948
3	2612	25.2	-0.32568254589569
3	2644	25.6	-0.03219576505944
3	2692	26	-0.022811277536676
3	2780	26.4	-0.0048822718672481
3	2812	26.8	0.39753443177324
3	2860	27.2	-0.24204446165822
3	2892	27.6	0.21325746725779
3	2940	28	-0.1693178571295
3	2972	28.4	-0.14582472364418
3	3004	28.8	0.039541697828098
3	3052	29.2	-0.055979920318348
3	3084	29.6	0.42978862393647
3	3132	30	-0.35578897455707
3	3164	30.4	0.089008885086512
3	3196	30.8	0.11667912942357
3	3300	31.2	0.13619533379097
3	3332	31.6	-0.19451171578839
3	3380	32	0.15173234103713
3	3412	32.4	-0.22523385414388
3	3444	32.8	0.087824507383627
3	3492	33.2	-0.030696492176503
3	3524	33.6	-0.04874123528134
3	3572	34	0.057895085192285
3	3604	34.4	0.16890792641789
3	3636	34.8	-0.14769864839036
3	3684	35.2	-0.23168376472313
3	3716	35.6	0.014257347793318
3	3820	36	-0.05415561585687
3	3852	36.4	0.39568044047337
3	3884	36.8	-0.37118962488603
3	3932	37.2	0.12103189970367
3	3964	37.6	0.14744648407213
3	4012	38	-0.15537402592599
3	4044	38.4	0.20709486363921
3	4076	38.8	-0.31793031434063
3	4124	39.2	0.30422379437368
3	4156	39.6	0.13864883733913
3	4204	40	-0.47371978242881
3	4236	40.4	0.16988883260638
3	4324	40.8	0.30213252129033
3	4372	41.2	-0.29760115907993
3	4404	41.6	0.23396992438938
3	4452	42	-0.14579175971448
3	4484	42.4	0.090984915033916
3	4516	42.8	0.11333420302253
3	4564	43.2	-0.1751788003603
3	4596	43.6	0.18242305261083
3	4644	44	-0.31757169973571
3	4676	44.4	0.25209145154804
3	4708	44.8	-0.03503837424796
3	4756	45.2	-0.2774698624853
2	25	0.8	11.037107794769
2	58	1.2	11.009625080917
2	75	1.6	11.010173926866
2	108	2	11.01084534036
2	196	2.4	11.108491379991
2	228	2.8	11.083234093422
2	276	3.2	11.046755137611
2	308	3.6	11.081577781579
2	356	4	11.107335597826
2	388	4.4	11.066288265157
2	420	4.8	10.934555758201
2	468	5.2	11.026298362846
2	500	5.6	11.082494636104
2	548	6	11.060379765313
2	580	6.4	11.082277343972
2	612	6.8	11.093188069239
2	716	7.2	11.03082282952
2	748	7.6	11.04090027147
2	796	8	11.011069097174
2	828	8.4	11.076644729814
2	860	8.8	11.046858226545
2	908	9.2	10.934288183451
2	940	9.6	11.035209763832
2	988	10	10.919807194117
2	1020	10.4	10.963068390721
2	1052	10.8	11.102250325158
2	1100	11.2	10.916419184338
2	1132	11.6	10.970178521648
2	1236	12	10.969690310201
2	1268	12.4	10.995448035691
2	1300	12.8	11.082914970946
2	1348	13.2	10.930398575254
2	1380	13.6	11.082798604146
2	1428	14	10.976620206274
2	1460	14.4	10.919838568326
2	1492	14.8	11.00043244319
2	1540	15.2	10.999388862625
2	1572	15.6	10.969514516545
2	1620	16	10.92133861877
2	1652	16.4	11.032704566875
2	1740	16.8	10.984089794839
2	1788	17.2	10.971112265056
2	1820	17.6	10.997026058743
2	1868	18	10.945025907774
2	1900	18.4	10.982086352529
2	1932	18.8	11.016866305647
2	1980	19.2	10.956996321529
2	2012	19.6	10.921895117536
2	2060	20	11.034958131416
2	2092	20.4	10.949252045797
2	2124	20.8	10.943140833303
2	2172	21.2	10.913328149905
2	2260	21.6	11.089108408326
2	2308	22	11.076072747391
2	2340	22.4	11.094136800421
2	2372	22.8	11.005783057204
2	2420	23.2	11.096466087541
2	2452	23.6	10.920896516778
2	2500	24	11.011804065984
2	2532	24.4	10.980091906656
2	2564	24.8	11.068106634067
2	2612	25.2	10.937833615709
2	2644	25.6	10.924955309685
2	2692	26	10.915830798671
2	2780	26.4	10.913877889924
2	2812	26.8	11.072891662633
2	2860	27.2	10.97607387797
2	2892	27.6	11.061376864873
2	2940	28	10.993649722021
2	2972	28.4	10.935319832563
2	3004	28.8	10.951136511695
2	3052	29.2	10.928744543567
2	3084	29.6	11.100659993142
2	3132	30	10.958344403319
2	3164	30.4	10.993947957354
2	3196	30.8	11.040619609123
2	3300	31.2	11.095097742639
2	3332	31.6	11.017293056324
2	3380	32	11.077985992739
2	3412	32.4	10.987892451081
2	3444	32.8	11.023022254035
2	3492	33.2	11.010743657164
2	3524	33.6	10.991247163052
2	3572	34	11.014405197129
2	3604	34.4	11.081968367696
2	3636	34.8	11.02288890834
2	3684	35.2	10.93021540245
2	3716	35.6	10.935918341568
2	3820	36	10.914256095225
2	3852	36.4	11.072528271414
2	3884	36.8	10.92405242146
2	3932	37.2	10.972465181341
2	3964	37.6	11.03144377497
2	4012	38	10.9692941646
2	4044	38.4	11.052132110056
2	4076	38.8	10.924959984319
2	4124	39.2	11.046649502069
2	4156	39.6	11.102109037004
2	4204	40	10.912621124033
2	4236	40.4	10.980576657075
2	4324	40.8	11.101429665592
2	4372	41.2	10.98238920196
2	4404	41.6	11.075977171715
2	4452	42	11.01766046783
2	4484	42.4	11.054054433843
2	4516	42.8	11.099388115052
2	4564	43.2	11.029316594908
2	4596	43.6	11.102285815952
2	4644	44	10.975257136058
2	4676	44.4	11.076093716677
2	4708	44.8	11.062078366978
2	4756	45.2	10.951090421984
1	9	0.4	29.95
1	25	0.8	29.95
1	58	1.2	29.95
1	75	1.6	29.95
1	108	2	29.95
1	196	2.4	29.95
1	228	2.8	29.95
1	276	3.2	29.95
1	308	3.6	29.95
1	356	4	29.95
1	388	4.4	29.95
1	420	4.8	29.95
1	468	5.2	29.95
1	500	5.6	29.95
1	548	6	29.95
1	580	6.4	29.95
1	612	6.8	29.95
1	716	7.2	29.95
1	748	7.6	29.95
1	796	8	29.95
1	828	8.4	29.95
1	860	8.8	29.95
1	908	9.2	29.95
1	940	9.6	29.95
1	988	10	33.25
1	1020	10.4	33.25
1	1052	10.8	33.25
1	1100	11.2	33.25
1	1132	11.6	33.25
1	1236	12	33.25
1	1268	12.4	33.25
1	1300	12.8	33.25
1	1348	13.2	33.25
1	1380	13.6	33.25
1	1428	14	33.25
1	1460	14.4	33.25
1	1492	14.8	33.25
1	1540	15.2	33.25
1	1572	15.6	33.25
1	1620	16	33.25
1	1652	16.4	33.25
1	1740	16.8	33.25
1	1788	17.2	33.25
1	1820	17.6	33.25
1	1868	18	33.25
1	1900	18.4	33.25
1	1932	18.8	33.25
1	1980	19.2	36.55
1	2012	19.6	36.55
1	2060	20	36.55
1	2092	20.4	36.55
1	2124	20.8	36.55
1	2172	21.2	36.55
1	2260	21.6	36.55
1	2308	22	36.55
1	2340	22.4	36.55
1	2372	22.8	36.55
1	2420	23.2	36.55
1	2452	23.6	36.55
1	2500	24	36.55
1	2532	24.4	36.55
1	2564	24.8	36.55
1	2612	25.2	36.55
1	2644	25.6	36.55
1	2692	26	36.55
1	2780	26.4	36.55
1	2812	26.8	36.55
1	2860	27.2	36.55
1	2892	27.6	36.55
1	2940	28	36.55
1	2972	28.4	36.55
1	3004	28.8	36.55
1	3052	29.2	36.55
1	3084	29.6	36.55
1	3132	30	36.55
1	3164	30.4	36.55
1	3196	30.8	36.55
1	3300	31.2	36.55
1	3332	31.6	36.55
1	3380	32	36.55
1	3412	32.4	36.55
1	3444	32.8	36.55
1	3492	33.2	36.55
1	3524	33.6	36.55
1	3572	34	36.55
1	3604	34.4	36.55
1	3636	34.8	36.55
1	3684	35.2	36.55
1	3716	35.6	36.55
1	3820	36	36.55
1	3852	36.4	36.55
1	3884	36.8	36.55
1	3932	37.2	36.55
1	3964	37.6	36.55
1	4012	38	36.55
1	4044	38.4	36.55
1	4076	38.8	36.55
1	4124	39.2	36.55
1	4156	39.6	36.55
1	4204	40	36.55
1	4236	40.4	36.55
1	4324	40.8	36.55
1	4372	41.2	36.55
1	4404	41.6	36.55
1	4452	42	36.55
1	4484	42.4	36.55
1	4516	42.8	36.55
1	4564	43.2	36.55
1	4596	43.6	36.55
1	4644	44	36.55
1	4676	44.4	36.55
1	4708	44.8	36.55
1	4756	45.2	36.55
0	9	0.4	28.528
0	25	0.8	28.528
0	58	1.2	32.854546255549
0	75	1.6	37.170319287269
0	108	2	41.4863074666
0	196	2.4	45.802558840021
0	228	2.8	50.157087460978
0	276	3.2	54.501715225599
0	308	3.6	58.832043239543
0	356	4	63.176021729922
0	388	4.4	67.53009728427
0	420	4.8	71.868082284211
0	468	5.2	76.154428141426
0	500	5.6	80.476737099661
0	548	6	84.821074997014
0	580	6.4	89.156743865017
0	612	6.8	93.500996583854
0	716	7.2	97.849526306995
0	748	7.6	102.17360885617
0	796	8	106.50164176258
0	828	8.4	110.81798084868
0	860	8.8	115.16002558276
0	908	9.2	119.49039400757
0	940	9.6	123.77663497548
0	988	10	128.1024372029
0	1020	10.4	132.383001623
0	1052	10.8	136.68052443216
0	1100	11.2	141.03260655962
0	1132	11.6	145.31184287988
0	1236	12	149.61215286037
0	1268	12.4	153.91227146197
0	1300	12.8	158.22248709196
0	1348	13.2	162.56698976057
0	1380	13.6	166.85170600207
0	1428	14	171.19616305489
0	1460	14.4	175.49899817575
0	1492	14.8	179.77957489454
0	1540	15.2	184.09174441227
0	1572	15.6	188.40350484642
0	1620	16	192.7035545369
0	1652	16.4	196.98471927546
0	1740	16.8	201.30953946568
0	1788	17.2	205.61530266525
0	1820	17.6	209.91597867315
0	1868	18	214.22681288818
0	1900	18.4	218.51726304403
0	1932	18.8	222.82224089422
0	1980	19.2	227.14085248603
0	2012	19.6	231.43599504407
0	2060	20	235.71737793015
0	2092	20.4	240.04308151766
0	2124	20.8	244.33518831961
0	2172	21.2	248.62489952627
0	2260	21.6	252.90292416103
0	2308	22	257.2498546571
0	2340	22.4	261.59167517407
0	2372	22.8	265.94057679984
0	2420	23.2	270.25484375826
0	2452	23.6	274.60465846458
0	2500	24	278.88564989916
0	2532	24.4	283.20227709302
0	2564	24.8	287.50647312043
0	2612	25.2	291.84517092098
0	2644	25.6	296.13280169834
0	2692	26	300.41538417974
0	2780	26.4	304.69438985282
0	2812	26.8	308.97262998567
0	2860	27.2	313.31320351742
0	2892	27.6	317.61582447758
0	2940	28	321.95188420861
0	2972	28.4	326.26139489965
0	3004	28.8	330.54804027401
0	3052	29.2	334.8408857866
0	3084	29.6	339.12495364767
0	3132	30	343.47641236499
0	3164	30.4	347.77208337109
0	3196	30.8	352.08171097037
0	3300	31.2	356.40963385715
0	3332	31.6	360.75891217226
0	3380	32	365.07769105034
0	3412	32.4	369.42026155949
0	3444	32.8	373.72751540032
0	3492	33.2	378.0485401239
0	3524	33.6	382.36475163751
0	3572	34	386.67332052542
0	3604	34.4	390.9909673627
0	3636	34.8	395.33509896283
0	3684	35.2	399.6560714149
0	3716	35.6	403.94071585266
0	3820	36	408.22759584256
0	3852	36.4	412.50598423189
0	3884	36.8	416.84641531428
0	3932	37.2	421.12864386349
0	3964	37.6	425.42985021458
0	4012	38	429.75417617437
0	4044	38.4	434.05413948689
0	4076	38.8	438.38657527403
0	4124	39.2	442.66915958789
0	4156	39.6	446.9994461927
0	4204	40	451.3514729352
0	4236	40.4	455.62922041582
0	4324	40.8	459.9336064654
0	4372	41.2	464.28536689431
0	4404	41.6	468.59046346148
0	4452	42	472.93224651279
0	4484	42.4	477.25116941618
0	4516	42.8	481.58435875425
0	4564	43.2	485.93531889535
0	4596	43.6	490.25881100055
0	4644	44	494.6109070404
0	4676	44.4	498.91320783774
0	4708	44.8	503.25503657468
0	4756	45.2	507.59137129453

