version 2
run General-1-20190128-13:12:55-4468
attr configname General
attr datetime 20190128-13:12:55
attr experiment General
attr inifile omnetpp.ini
attr iterationvars ""
attr iterationvarsf ""
attr measurement ""
attr network com.liborio.slicing.SlicingScenario
attr processid 4468
attr repetition 1
attr replication #1
attr resultdir results
attr runnumber 1
attr seedset 1
param **.debug false
param **.coreDebug false
param *.playgroundSizeX 600m
param *.playgroundSizeY 600m
param *.playgroundSizeZ 50m
param *.annotations.draw true
param *.manager.updateInterval 0.4s
param *.manager.host "\"localhost\""
param *.manager.port 9999
param *.manager.autoShutdown true
param *.manager.launchConfig "xmldoc(\"highway.launchd.xml\")"
param *.rsu[0].mobility.x 275.0
param *.rsu[0].mobility.y 23.0
param *.rsu[0].mobility.z 3
param *.rsu[*].applType "\"RSUApp\""
param *.rsu[*].appl.headerLength "80 bit"
param *.rsu[*].appl.sendBeacons false
param *.rsu[*].appl.dataOnSch true
param *.rsu[*].appl.beaconInterval 1s
param *.rsu[*].appl.beaconUserPriority 7
param *.rsu[*].appl.dataUserPriority 5
param *.connectionManager.sendDirect true
param *.connectionManager.maxInterfDist 2600m
param *.connectionManager.drawMaxIntfDist false
param *.**.nic.mac1609_4.useServiceChannel true
param *.**.nic.mac1609_4.txPower 20mW
param *.**.nic.mac1609_4.bitrate 6Mbps
param *.**.nic.phy80211p.sensitivity -89dBm
param *.**.nic.phy80211p.useThermalNoise true
param *.**.nic.phy80211p.thermalNoise -110dBm
param *.**.nic.phy80211p.decider "xmldoc(\"config.xml\")"
param *.**.nic.phy80211p.analogueModels "xmldoc(\"config.xml\")"
param *.**.nic.phy80211p.usePropagationDelay true
param *.**.nic.phy80211p.antenna "xmldoc(\"antenna.xml\", \"/root/Antenna[@id='monopole']\")"
param *.node[*].applType "\"VehApp\""
param *.node[*].appl.headerLength "80 bit"
param *.node[*].appl.sendBeacons true
param *.node[*].appl.dataOnSch true
param *.node[*].appl.beaconInterval 1s
param *.node[*].appl.wsaInterval 1s
param *.node[*].veinsmobilityType.debug true
param *.node[*].veinsmobility.x 0
param *.node[*].veinsmobility.y 0
param *.node[*].veinsmobility.z 1.895

vector 0 SlicingScenario.node[0].veinsmobility posx ETV
vector 1 SlicingScenario.node[0].veinsmobility posy ETV
vector 2 SlicingScenario.node[0].veinsmobility speed ETV
vector 3 SlicingScenario.node[0].veinsmobility acceleration ETV
vector 4 SlicingScenario.node[0].veinsmobility co2emission ETV
4	58	1.2	2.1266561069019
4	75	1.6	1.4779995177664
4	108	2	3.020936633208
4	196	2.4	1.5995388510108
4	243	2.8	1.5357016345584
4	276	3.2	0.973
4	308	3.6	2.9081970305155
4	356	4	1.6496554207748
4	388	4.4	1.9632334635745
4	435	4.8	1.3617104389999
4	468	5.2	2.05018485508
4	500	5.6	1.4981749245702
4	548	6	1.8232885395283
4	580	6.4	1.3328675495237
4	627	6.8	2.1289464086851
4	716	7.2	0.973
4	748	7.6	2.2897415895508
4	796	8	1.3533731988996
4	828	8.4	2.333226896607
4	875	8.8	1.9084773091504
4	908	9.2	1.2695847289439
4	940	9.6	1.9770810381779
4	988	10	2.1962150085623
4	1020	10.4	1.4479311641717
4	1067	10.8	1.1855324413356
4	1100	11.2	2.6334974615726
4	1132	11.6	2.0427257888138
4	1236	12	0.973
4	1268	12.4	1.5816837995396
4	1315	12.8	1.4370437437326
4	1348	13.2	2.4256760587515
4	1380	13.6	1.7121382906331
4	1428	14	1.6289570408325
4	1460	14.4	1.9355695733612
4	1507	14.8	2.1579898328054
4	1540	15.2	0.973
4	1572	15.6	2.7578814567996
4	1620	16	0.973
4	1652	16.4	1.7300061914527
4	1755	16.8	1.8729141696165
4	1788	17.2	1.4249083411854
4	1820	17.6	1.9778377750363
4	1868	18	2.4188734883604
4	1900	18.4	2.0659664294231
4	1947	18.8	0.973
4	1980	19.2	1.9951133744105
4	2012	19.6	1.2862465259961
4	2060	20	1.7734394689413
4	2092	20.4	1.7190037170249
4	2139	20.8	1.845366935505
4	2172	21.2	2.7658730685347
4	2260	21.6	0.973
4	2308	22	2.829591365766
4	2340	22.4	1.4564126659393
4	2387	22.8	1.9075947420443
4	2420	23.2	1.9195432375076
4	2452	23.6	0.973
4	2500	24	2.036216766344
4	2532	24.4	2.5356621755589
4	2579	24.8	0.973
4	2612	25.2	1.9941706589132
4	2644	25.6	1.4302436964348
4	2692	26	1.3803542708159
4	2780	26.4	2.4915357969912
4	2827	26.8	1.6029366483345
4	2860	27.2	2.2170832690196
4	2892	27.6	0.973
4	2940	28	2.3035659427993
4	2972	28.4	1.7329797629294
4	3019	28.8	2.0018275795284
4	3052	29.2	0.973
4	3084	29.6	1.6320051411343
4	3132	30	1.6912901526513
4	3164	30.4	2.3267211183097
4	3211	30.8	2.299958014327
4	3300	31.2	1.7508146578029
4	3332	31.6	0.973
4	3380	32	1.9293257583873
4	3412	32.4	1.2767172946386
4	3459	32.8	2.1959759302752
4	3492	33.2	1.6447572355676
4	3524	33.6	2.366480925383
4	3572	34	1.792057946554
4	3604	34.4	1.5452587768347
4	3651	34.8	1.3068302333001
4	3684	35.2	2.5252169396366
4	3716	35.6	1.9298077733314
4	3820	36	1.8113441977227
4	3852	36.4	1.2679071998816
4	3899	36.8	1.7365835725486
4	3932	37.2	1.1791765243593
4	3964	37.6	2.8567963795924
4	4012	38	1.5048682416449
4	4044	38.4	0.973
4	4091	38.8	2.587754561483
4	4124	39.2	1.9954674022771
4	4156	39.6	1.7564114561364
4	4204	40	1.2405000435623
4	4236	40.4	2.4487233605055
4	4339	40.8	1.6853567381656
4	4372	41.2	0.973
4	4404	41.6	1.4442140232786
4	4452	42	2.7096818994101
4	4484	42.4	0.973
4	4531	42.8	2.6274965679336
4	4564	43.2	1.7232583986211
4	4596	43.6	1.5089326393905
4	4644	44	1.6400833735548
4	4676	44.4	2.4819803844631
4	4723	44.8	0.973
4	4756	45.2	1.7523301992768
3	58	1.2	0.13843015942257
3	75	1.6	-0.10611643595621
3	108	2	0.46622149005998
3	196	2.4	-0.064005033345893
3	243	2.8	-0.087104059988632
3	276	3.2	-0.34835397382267
3	308	3.6	0.42614231142215
3	356	4	-0.044666541856713
3	388	4.4	0.071875190362336
3	435	4.8	-0.15212106530089
3	468	5.2	0.10516025742982
3	500	5.6	-0.10082526446786
3	548	6	0.021175007568672
3	580	6.4	-0.16209265764337
3	627	6.8	0.13648928585462
3	716	7.2	-0.26938580197748
3	748	7.6	0.19836117036175
3	796	8	-0.15374709316529
3	828	8.4	0.21355819958262
3	875	8.8	0.052960503031501
3	908	9.2	-0.18597299384419
3	940	9.6	0.08033566898666
3	988	10	0.16004795685876
3	1020	10.4	-0.11950032238383
3	1067	10.8	-0.21733227162622
3	1100	11.2	0.32427010848187
3	1132	11.6	0.10109481203835
3	1236	12	-0.25351315562148
3	1268	12.4	-0.068026800174263
3	1315	12.8	-0.12174725742079
3	1348	13.2	0.2483286090428
3	1380	13.6	-0.019950002431868
3	1428	14	-0.050742509076374
3	1460	14.4	0.063995628617706
3	1507	14.8	0.14515581657179
3	1540	15.2	-0.39937042898964
3	1572	15.6	0.37051315582357
3	1620	16	-0.29014387610368
3	1652	16.4	-0.011177665437572
3	1755	16.8	0.042387027759103
3	1788	17.2	-0.12614553049207
3	1820	17.6	0.082752034300939
3	1868	18	0.24466665927321
3	1900	18.4	0.11031168722548
3	1947	18.8	-0.29976090334821
3	1980	19.2	0.087085034348999
3	2012	19.6	-0.17911829892546
3	2060	20	0.0056844503851572
3	2092	20.4	-0.014793209265918
3	2139	20.8	0.032729876576925
3	2172	21.2	0.37205135182012
3	2260	21.6	-0.37227957881987
3	2308	22	0.39527429023292
3	2340	22.4	-0.11699759657495
3	2387	22.8	0.051609777379782
3	2420	23.2	0.055293612764213
3	2452	23.6	-0.40944965358358
3	2500	24	0.10380723152775
3	2532	24.4	0.28609060239978
3	2579	24.8	-0.24735934019555
3	2612	25.2	0.085978948045522
3	2644	25.6	-0.12527323549147
3	2692	26	-0.1431177201448
3	2780	26.4	0.27305082650855
3	2827	26.8	-0.060688705183565
3	2860	27.2	0.16780719789676
3	2892	27.6	-0.24716310959775
3	2940	28	0.20112373447046
3	2972	28.4	-0.012942995061169
3	3019	28.8	0.086697750492024
3	3052	29.2	-0.27219039585907
3	3084	29.6	-0.048406773945318
3	3132	30	-0.025655600475147
3	3164	30.4	0.21104341419414
3	3211	30.8	0.19712528248783
3	3300	31.2	-0.00794151495211
3	3332	31.6	-0.35798650118522
3	3380	32	0.063057164545173
3	3412	32.4	-0.18241555208806
3	3459	32.8	0.16411268140655
3	3492	33.2	-0.043764964211732
3	3524	33.6	0.22483517730143
3	3572	34	0.0090256531257182
3	3604	34.4	-0.082845254219137
3	3651	34.8	-0.17157241574023
3	3684	35.2	0.28357739187777
3	3716	35.6	0.059449268155731
3	3820	36	0.014930918929164
3	3852	36.4	-0.18726467515807
3	3899	36.8	-0.0106725001242
3	3932	37.2	-0.21967848984059
3	3964	37.6	0.40621162275784
3	4012	38	-0.09872094215825
3	4044	38.4	-0.30487801402342
3	4091	38.8	0.30779741413426
3	4124	39.2	0.084142434643582
3	4156	39.6	-0.0052690476877615
3	4204	40	-0.19738540693652
3	4236	40.4	0.25271621230059
3	4339	40.8	-0.032128023449332
3	4372	41.2	-0.29760626261123
3	4404	41.6	-0.11901290190872
3	4452	42	0.35261661163531
3	4484	42.4	-0.34941013436764
3	4531	42.8	0.32245086110197
3	4564	43.2	-0.016691726632416
3	4596	43.6	-0.096321524702945
3	4644	44	-0.0464079817757
3	4676	44.4	0.26551328971982
3	4723	44.8	-0.25627474207431
3	4756	45.2	-0.0041027890983969
2	40	0.8	10.910563038373
2	58	1.2	10.965935102142
2	75	1.6	10.92348852776
2	108	2	11.109977123784
2	196	2.4	11.084375110446
2	243	2.8	11.04953348645
2	276	3.2	10.910191896921
2	308	3.6	11.08064882149
2	356	4	11.062782204747
2	388	4.4	11.091532280892
2	435	4.8	11.030683854772
2	468	5.2	11.072747957744
2	500	5.6	11.032417851957
2	548	6	11.040887854984
2	580	6.4	10.976050791927
2	627	6.8	11.030646506269
2	716	7.2	10.922892185478
2	748	7.6	11.002236653622
2	796	8	10.940737816356
2	828	8.4	11.026161096189
2	875	8.8	11.047345297402
2	908	9.2	10.972956099864
2	940	9.6	11.005090367459
2	988	10	11.069109550202
2	1020	10.4	11.021309421249
2	1067	10.8	10.934376512598
2	1100	11.2	11.064084555991
2	1132	11.6	11.104522480806
2	1236	12	11.003117218558
2	1268	12.4	10.975906498488
2	1315	12.8	10.92720759552
2	1348	13.2	11.026539039137
2	1380	13.6	11.018559038164
2	1428	14	10.998262034534
2	1460	14.4	11.023860285981
2	1507	14.8	11.081922612609
2	1540	15.2	10.922174441013
2	1572	15.6	11.070379703343
2	1620	16	10.954322152901
2	1652	16.4	10.949851086726
2	1755	16.8	10.96680589783
2	1788	17.2	10.916347685633
2	1820	17.6	10.949448499354
2	1868	18	11.047315163063
2	1900	18.4	11.091439837953
2	1947	18.8	10.971535476614
2	1980	19.2	11.006369490353
2	2012	19.6	10.934722170783
2	2060	20	10.936995950937
2	2092	20.4	10.931078667231
2	2139	20.8	10.944170617862
2	2172	21.2	11.09299115859
2	2260	21.6	10.944079327062
2	2308	22	11.102189043155
2	2340	22.4	11.055390004525
2	2387	22.8	11.076033915477
2	2420	23.2	11.098151360583
2	2452	23.6	10.934371499149
2	2500	24	10.97589439176
2	2532	24.4	11.09033063272
2	2579	24.8	10.991386896642
2	2612	25.2	11.02577847586
2	2644	25.6	10.975669181664
2	2692	26	10.918422093606
2	2780	26.4	11.027642424209
2	2827	26.8	11.003366942136
2	2860	27.2	11.070489821294
2	2892	27.6	10.971624577455
2	2940	28	11.052074071243
2	2972	28.4	11.046896873219
2	3019	28.8	11.081575973416
2	3052	29.2	10.972699815072
2	3084	29.6	10.953337105494
2	3132	30	10.943074865304
2	3164	30.4	11.027492230982
2	3211	30.8	11.106342343977
2	3300	31.2	11.103165737996
2	3332	31.6	10.959971137522
2	3380	32	10.98519400334
2	3412	32.4	10.912227782505
2	3459	32.8	10.977872855067
2	3492	33.2	10.960366869383
2	3524	33.6	11.050300940303
2	3572	34	11.053911201553
2	3604	34.4	11.020773099866
2	3651	34.8	10.95214413357
2	3684	35.2	11.065575090321
2	3716	35.6	11.089354797583
2	3820	36	11.095327165155
2	3852	36.4	11.020421295092
2	3899	36.8	11.016152295042
2	3932	37.2	10.928280899106
2	3964	37.6	11.090765548209
2	4012	38	11.051277171345
2	4044	38.4	10.929325965736
2	4091	38.8	11.05244493139
2	4124	39.2	11.086101905247
2	4156	39.6	11.083994286172
2	4204	40	11.005040123397
2	4236	40.4	11.106126608318
2	4339	40.8	11.093275398938
2	4372	41.2	10.974232893893
2	4404	41.6	10.92662773313
2	4452	42	11.067674377784
2	4484	42.4	10.927910324037
2	4531	42.8	11.056890668478
2	4564	43.2	11.050213977825
2	4596	43.6	11.011685367944
2	4644	44	10.993122175233
2	4676	44.4	11.099327491121
2	4723	44.8	10.996817594292
2	4756	45.2	10.995176478652
1	9	0.4	33.25
1	40	0.8	33.25
1	58	1.2	33.25
1	75	1.6	33.25
1	108	2	33.25
1	196	2.4	33.25
1	243	2.8	33.25
1	276	3.2	33.25
1	308	3.6	33.25
1	356	4	33.25
1	388	4.4	33.25
1	435	4.8	33.25
1	468	5.2	33.25
1	500	5.6	33.25
1	548	6	33.25
1	580	6.4	33.25
1	627	6.8	33.25
1	716	7.2	33.25
1	748	7.6	33.25
1	796	8	33.25
1	828	8.4	33.25
1	875	8.8	33.25
1	908	9.2	33.25
1	940	9.6	33.25
1	988	10	36.55
1	1020	10.4	36.55
1	1067	10.8	36.55
1	1100	11.2	36.55
1	1132	11.6	36.55
1	1236	12	36.55
1	1268	12.4	36.55
1	1315	12.8	36.55
1	1348	13.2	36.55
1	1380	13.6	36.55
1	1428	14	36.55
1	1460	14.4	36.55
1	1507	14.8	36.55
1	1540	15.2	36.55
1	1572	15.6	36.55
1	1620	16	36.55
1	1652	16.4	36.55
1	1755	16.8	36.55
1	1788	17.2	36.55
1	1820	17.6	36.55
1	1868	18	36.55
1	1900	18.4	36.55
1	1947	18.8	36.55
1	1980	19.2	36.55
1	2012	19.6	36.55
1	2060	20	36.55
1	2092	20.4	36.55
1	2139	20.8	36.55
1	2172	21.2	36.55
1	2260	21.6	36.55
1	2308	22	36.55
1	2340	22.4	36.55
1	2387	22.8	36.55
1	2420	23.2	36.55
1	2452	23.6	36.55
1	2500	24	36.55
1	2532	24.4	36.55
1	2579	24.8	36.55
1	2612	25.2	36.55
1	2644	25.6	36.55
1	2692	26	36.55
1	2780	26.4	36.55
1	2827	26.8	36.55
1	2860	27.2	36.55
1	2892	27.6	36.55
1	2940	28	36.55
1	2972	28.4	36.55
1	3019	28.8	36.55
1	3052	29.2	36.55
1	3084	29.6	36.55
1	3132	30	36.55
1	3164	30.4	36.55
1	3211	30.8	36.55
1	3300	31.2	36.55
1	3332	31.6	36.55
1	3380	32	36.55
1	3412	32.4	36.55
1	3459	32.8	36.55
1	3492	33.2	36.55
1	3524	33.6	36.55
1	3572	34	36.55
1	3604	34.4	36.55
1	3651	34.8	36.55
1	3684	35.2	36.55
1	3716	35.6	36.55
1	3820	36	36.55
1	3852	36.4	36.55
1	3899	36.8	36.55
1	3932	37.2	36.55
1	3964	37.6	36.55
1	4012	38	36.55
1	4044	38.4	36.55
1	4091	38.8	36.55
1	4124	39.2	36.55
1	4156	39.6	36.55
1	4204	40	36.55
1	4236	40.4	36.55
1	4339	40.8	36.55
1	4372	41.2	36.55
1	4404	41.6	36.55
1	4452	42	36.55
1	4484	42.4	36.55
1	4531	42.8	36.55
1	4564	43.2	36.55
1	4596	43.6	36.55
1	4644	44	36.55
1	4676	44.4	36.55
1	4723	44.8	36.55
1	4756	45.2	36.55
0	9	0.4	28.528
0	40	0.8	28.528
0	58	1.2	32.804940711042
0	75	1.6	37.103587271082
0	108	2	41.385594773964
0	196	2.4	45.740705806487
0	243	2.8	50.085780849782
0	276	3.2	54.41719797647
0	308	3.6	58.693993200063
0	356	4	63.037607538088
0	388	4.4	67.374218162348
0	435	4.8	71.722098816458
0	468	5.2	76.046126887529
0	500	5.6	80.386644086964
0	548	6	84.711351884931
0	580	6.4	89.039379924085
0	627	6.8	93.34199183452
0	716	7.2	97.666005264977
0	748	7.6	101.94777900168
0	796	8	106.2606557699
0	828	8.4	110.54942499392
0	875	8.8	114.87168014362
0	908	9.2	119.2022395002
0	940	9.6	123.50363829135
0	988	10	127.81763371539
0	1020	10.4	132.15672465907
0	1067	10.8	136.4770779522
0	1100	11.2	140.76335354514
0	1132	11.6	145.10047469109
0	1236	12	149.45344750357
0	1268	12.4	153.76666945324
0	1315	12.8	158.06922480065
0	1348	13.2	162.35269017809
0	1380	13.6	166.67509348143
0	1428	14	170.99436862439
0	1460	14.4	175.30568734193
0	1507	14.8	179.62704057404
0	1540	15.2	183.97115423818
0	1572	15.6	188.25264661906
0	1620	16	192.59223546277
0	1652	16.4	196.8863297467
0	1755	16.8	201.1786713727
0	1788	17.2	205.47765928465
0	1820	17.6	209.75686757742
0	1868	18	214.04905138916
0	1900	18.4	218.37959893308
0	1947	18.8	222.72744334956
0	1980	19.2	227.0282852564
0	2012	19.6	231.34278209661
0	2060	20	235.62919318756
0	2092	20.4	239.91649560033
0	2139	20.8	244.20147843788
0	2172	21.2	248.49159332008
0	2260	21.6	252.84004585425
0	2308	22	257.13012495046
0	2340	22.4	261.48218305538
0	2387	22.8	265.81589593715
0	2420	23.2	270.15770123202
0	2452	23.6	274.50817656537
0	2500	24	278.79445019303
0	2532	24.4	283.0970007946
0	2579	24.8	287.44441040263
0	2612	25.2	291.75303406611
0	2644	25.6	296.07513922865
0	2692	26	300.37760154786
0	2780	26.4	304.65762300855
0	2827	26.8	308.98045883884
0	2860	27.2	313.29377868016
0	2892	27.6	317.63341069011
0	2940	28	321.93428752447
0	2972	28.4	326.2667005604
0	3019	28.8	330.5970841347
0	3052	29.2	334.94106191628
0	3084	29.6	339.24236024379
0	3132	30	343.53606838914
0	3164	30.4	347.82575373634
0	3211	30.8	352.14853069089
0	3300	31.2	356.50221688972
0	3332	31.6	360.85465785902
0	3380	32	365.15096654493
0	3412	32.4	369.45716259424
0	3459	32.8	373.73475588498
0	3492	33.2	378.03808204416
0	3524	33.6	382.33454585696
0	3572	34	386.66626382556
0	3604	34.4	390.99939701657
0	3651	34.8	395.31954007172
0	3684	35.2	399.61278057208
0	3716	35.6	403.95048600748
0	3820	36	408.29751308814
0	3852	36.4	412.64688133688
0	3899	36.8	416.96688648455
0	3932	37.2	421.28521818421
0	3964	37.6	425.56910429666
0	4012	38	429.91668439156
0	4044	38.4	434.24878504272
0	4091	38.8	438.53308082129
0	4124	39.2	442.8656392344
0	4156	39.6	447.21139118125
0	4204	40	451.55631694143
0	4236	40.4	455.8702926698
0	4339	40.8	460.22389430027
0	4372	41.2	464.57245825665
0	4404	41.6	468.87435755106
0	4452	42	473.15759562244
0	4484	42.4	477.49612397853
0	4531	42.8	481.77986482556
0	4564	43.2	486.1141659676
0	4596	43.6	490.44584984691
0	4644	44	494.76243051114
0	4676	44.4	499.07173440383
0	4723	44.8	503.42267078035
0	4756	45.2	507.73342327731

