version 2
run General-0-20190128-18:07:09-18650
attr configname General
attr datetime 20190128-18:07:09
attr experiment General
attr inifile omnetpp.ini
attr iterationvars ""
attr iterationvarsf ""
attr measurement ""
attr network com.liborio.slicing.SlicingScenario
attr processid 18650
attr repetition 0
attr replication #0
attr resultdir results
attr runnumber 0
attr seedset 0
param **.debug false
param **.coreDebug false
param *.playgroundSizeX 1200m
param *.playgroundSizeY 1200m
param *.playgroundSizeZ 50m
param *.annotations.draw true
param *.manager.updateInterval 0.4s
param *.manager.host "\"localhost\""
param *.manager.port 9999
param *.manager.autoShutdown true
param *.manager.launchConfig "xmldoc(\"highway.launchd.xml\")"
param *.rsu[0].mobility.x 275.0
param *.rsu[0].mobility.y 23.0
param *.rsu[0].mobility.z 3
param *.rsu[*].applType "\"RSUApp\""
param *.rsu[*].appl.headerLength "80 bit"
param *.rsu[*].appl.sendBeacons false
param *.rsu[*].appl.dataOnSch true
param *.rsu[*].appl.beaconInterval 1s
param *.rsu[*].appl.beaconUserPriority 7
param *.rsu[*].appl.dataUserPriority 5
param *.connectionManager.sendDirect true
param *.connectionManager.maxInterfDist 2600m
param *.connectionManager.drawMaxIntfDist false
param *.**.nic.mac1609_4.useServiceChannel true
param *.**.nic.mac1609_4.txPower 20mW
param *.**.nic.mac1609_4.bitrate 18Mbps
param *.**.nic.phy80211p.sensitivity -89dBm
param *.**.nic.phy80211p.useThermalNoise true
param *.**.nic.phy80211p.thermalNoise -110dBm
param *.**.nic.phy80211p.decider "xmldoc(\"config.xml\")"
param *.**.nic.phy80211p.analogueModels "xmldoc(\"config.xml\")"
param *.**.nic.phy80211p.usePropagationDelay true
param *.**.nic.phy80211p.antenna "xmldoc(\"antenna.xml\", \"/root/Antenna[@id='monopole']\")"
param *.node[*].applType "\"VehApp\""
param *.node[*].appl.headerLength "80 bit"
param *.node[*].appl.sendBeacons true
param *.node[*].appl.dataOnSch true
param *.node[*].appl.beaconInterval 1s
param *.node[*].appl.wsaInterval 1s
param *.node[*].veinsmobilityType.debug true
param *.node[*].veinsmobility.x 0
param *.node[*].veinsmobility.y 0
param *.node[*].veinsmobility.z 1.895

vector 0 SlicingScenario.node[0].veinsmobility posx ETV
vector 1 SlicingScenario.node[0].veinsmobility posy ETV
vector 2 SlicingScenario.node[0].veinsmobility speed ETV
vector 3 SlicingScenario.node[0].veinsmobility acceleration ETV
vector 4 SlicingScenario.node[0].veinsmobility co2emission ETV
4	58	1.2	1.5992170877715
4	75	1.6	1.5886188435108
4	108	2	2.08253800181
4	196	2.4	1.4222212317479
4	228	2.8	2.1786828495235
4	276	3.2	1.3601221511094
4	308	3.6	2.3284321391865
4	356	4	1.497769005276
4	388	4.4	1.7324817265188
4	420	4.8	2.1139867721111
4	468	5.2	1.6947682752853
4	500	5.6	1.954224936836
4	548	6	0.973
4	580	6.4	2.8884930540668
4	612	6.8	0.973
4	716	7.2	2.6886893106575
4	748	7.6	1.6190331739878
4	796	8	1.6397223172502
4	828	8.4	1.3451932146895
4	860	8.8	1.7323480181586
4	908	9.2	2.1395650216412
4	940	9.6	1.8296651192074
4	988	10	1.6466061850867
4	1020	10.4	1.999141379991
4	1052	10.8	0.973
4	1100	11.2	1.8769662658262
4	1132	11.6	2.7943526830772
4	1236	12	1.4126538018757
4	1268	12.4	2.1057131047572
4	1300	12.8	0.973
4	1348	13.2	2.6126649255438
4	1380	13.6	1.3037437855246
4	1428	14	0.973
4	1460	14.4	1.5931079907443
4	1492	14.8	1.9961493304919
4	1540	15.2	2.6220250908613
4	1572	15.6	0.973
4	1620	16	1.7582748520385
4	1652	16.4	1.6138718375016
4	1740	16.8	2.4351672730987
4	1788	17.2	1.3299665535308
4	1820	17.6	1.7571884520555
4	1868	18	2.215685406467
4	1900	18.4	1.6858352459987
4	1932	18.8	1.4165787846045
4	1980	19.2	1.8959114031441
4	2012	19.6	2.5195947594381
4	2060	20	0.973
4	2092	20.4	1.8689350046233
4	2124	20.8	1.8397761336739
4	2172	21.2	2.3560185575502
4	2260	21.6	1.2414094794649
4	2308	22	1.2211641071557
4	2340	22.4	2.0058679805746
4	2372	22.8	2.0780524801783
4	2420	23.2	2.3266644885898
4	2452	23.6	1.3555510205203
4	2500	24	1.6866150173723
4	2532	24.4	2.0468015617236
4	2564	24.8	1.8739306492457
4	2612	25.2	0.973
4	2644	25.6	1.8098371632804
4	2692	26	2.1379250563806
4	2780	26.4	2.0885785767618
4	2812	26.8	1.2970294753588
4	2860	27.2	2.3489589957755
4	2892	27.6	1.9281349434461
4	2940	28	1.3608912639472
4	2972	28.4	1.3739421332832
4	3004	28.8	2.394959710832
4	3052	29.2	0.973
4	3084	29.6	2.2886924488649
4	3132	30	1.2400796840478
4	3160	30.4	2.0726366975424
4	3188	30.8	0.973
4	3268	31.2	1.812038898738
4	3296	31.6	2.0533826098289
4	3336	32	2.0731369797537
4	3364	32.4	1.8870123555521
4	3392	32.8	1.426862856335
4	3432	33.2	1.999254422272
4	3460	33.6	0.973
4	3500	34	2.0318090041768
4	3517	34.4	2.5706060524931
4	3534	34.8	1.8238639828759
4	3563	35.2	0.973
4	3580	35.6	2.1625181252554
4	3609	36	1.779939052305
4	3626	36.4	1.7384825494351
4	3643	36.8	2.4367691683029
4	3672	37.2	1.71652021969
4	3689	37.6	1.5701865638317
4	3718	38	2.0766695506069
4	3735	38.4	0.973
4	3752	38.8	2.3468341478
4	3781	39.2	1.3754791487966
4	3798	39.6	2.0913241434866
4	3827	40	1.8187396440358
4	3844	40.4	1.4384396249209
4	3861	40.8	2.4834140590164
4	3890	41.2	1.2339119344935
4	3907	41.6	1.5032523378404
4	3936	42	1.2908319250091
4	3953	42.4	1.7956406453021
4	3970	42.8	2.9160247662274
4	3999	43.2	0.973
4	4016	43.6	2.3612463475081
4	4045	44	1.1981752988317
4	4062	44.4	2.4023642779831
4	4079	44.8	0.973
4	4108	45.2	2.2146354571733
3	58	1.2	-0.061172374291343
3	75	1.6	-0.064538189559245
3	108	2	0.12075118685607
3	196	2.4	-0.12759112473578
3	228	2.8	0.15653122123331
3	276	3.2	-0.1511842799373
3	308	3.6	0.2117984702345
3	356	4	-0.099954449804498
3	388	4.4	-0.011165209347381
3	420	4.8	0.13075620343443
3	468	5.2	-0.026602750876918
3	500	5.6	0.070026302360926
3	548	6	-0.29711919825058
3	580	6.4	0.41753001301549
3	612	6.8	-0.45347489416599
3	716	7.2	0.34550323477015
3	748	7.6	-0.055392613401639
3	796	8	-0.047111795167436
3	828	8.4	-0.15702996088657
3	860	8.8	-0.01022184651811
3	908	9.2	0.14163690246642
3	940	9.6	0.024458875064735
3	988	10	-0.044033696176484
3	1020	10.4	0.087629885296341
3	1052	10.8	-0.26640592003242
3	1100	11.2	0.044758932199329
3	1132	11.6	0.382521355059
3	1236	12	-0.13318005145993
3	1268	12.4	0.1251334323315
3	1300	12.8	-0.28052128979471
3	1348	13.2	0.31397673871834
3	1380	13.6	-0.17401156912092
3	1428	14	-0.23218915273901
3	1460	14.4	-0.062267655739561
3	1492	14.8	0.089499198715202
3	1540	15.2	0.31890298973303
3	1572	15.6	-0.3648306839168
3	1620	16	-3.7552905269855e-05
3	1652	16.4	-0.05426554591395
3	1740	16.8	0.25250515143853
3	1788	17.2	-0.1627752619097
3	1820	17.6	-0.00087609433103708
3	1868	18	0.16971569485031
3	1900	18.4	-0.029499058844524
3	1932	18.8	-0.13002584758214
3	1980	19.2	0.05082482099533
3	2012	19.6	0.28030255495105
3	2060	20	-0.30117911391426
3	2092	20.4	0.040355817298403
3	2124	20.8	0.028950612875631
3	2172	21.2	0.21933325286955
3	2260	21.6	-0.19700997136533
3	2308	22	-0.20364784519188
3	2340	22.4	0.09302664909046
3	2372	22.8	0.11838364612777
3	2420	23.2	0.20797036087606
3	2452	23.6	-0.15437716734596
3	2500	24	-0.029469240806068
3	2532	24.4	0.10452240565792
3	2564	24.8	0.039111633435827
3	2612	25.2	-0.29395067098085
3	2644	25.6	0.018657754291778
3	2692	26	0.14038392098155
3	2780	26.4	0.11979998962488
3	2812	26.8	-0.17594179580919
3	2860	27.2	0.2166078875307
3	2892	27.6	0.058214187622072
3	2940	28	-0.15267560305074
3	2972	28.4	-0.14674724836368
3	3004	28.8	0.23398031853139
3	3052	29.2	-0.23121042933781
3	3084	29.6	0.19488716847263
3	3132	30	-0.19730630656704
3	3160	30.4	0.11522251029965
3	3188	30.8	-0.27862954861485
3	3268	31.2	0.020574801950719
3	3296	31.6	0.1103890867671
3	3336	32	0.11593515414279
3	3364	32.4	0.045221043750643
3	3392	32.8	-0.12677777989302
3	3432	33.2	0.088015754590742
3	3460	33.6	-0.2326583127724
3	3500	34	0.10235869139433
3	3517	34.4	0.29917542194017
3	3534	34.8	0.019527442520482
3	3563	35.2	-0.4547918010503
3	3580	35.6	0.15152117866091
3	3609	36	0.0068133395398062
3	3626	36.4	-0.0087489207508051
3	3643	36.8	0.24986414378509
3	3672	37.2	-0.019736487767661
3	3689	37.6	-0.073884804267434
3	3718	38	0.11461293592583
3	3735	38.4	-0.31087992026005
3	3752	38.8	0.21762889460661
3	3781	39.2	-0.14620115852449
3	3798	39.6	0.12205994664691
3	3827	40	0.019331772928126
3	3844	40.4	-0.12257477419916
3	3861	40.8	0.26588567520958
3	3890	41.2	-0.20008804393001
3	3907	41.6	-0.097836269880647
3	3936	42	-0.17704988934566
3	3953	42.4	0.014712281292306
3	3970	42.8	0.42845223122276
3	3999	43.2	-0.27537275606301
3	4016	43.6	0.22195678018033
3	4045	44	-0.21309105923865
3	4062	44.4	0.2368746829452
3	4079	44.8	-0.41699502721895
3	4108	45.2	0.17109562177211
2	25	0.8	10.991431076722
2	58	1.2	10.966962127006
2	75	1.6	10.941146851182
2	108	2	10.989447325924
2	196	2.4	10.93841087603
2	228	2.8	11.001023364523
2	276	3.2	10.940549652549
2	308	3.6	11.025269040642
2	356	4	10.985287260721
2	388	4.4	10.980821176982
2	420	4.8	11.033123658355
2	468	5.2	11.022482558005
2	500	5.6	11.050493078949
2	548	6	10.931645399649
2	580	6.4	11.098657404855
2	612	6.8	10.917267447188
2	716	7.2	11.055468741097
2	748	7.6	11.033311695736
2	796	8	11.014466977669
2	828	8.4	10.951654993314
2	860	8.8	10.947566254707
2	908	9.2	11.004221015694
2	940	9.6	11.01400456572
2	988	10	10.996391087249
2	1020	10.4	11.031443041367
2	1052	10.8	10.924880673354
2	1100	11.2	10.942784246234
2	1132	11.6	11.095792788258
2	1236	12	11.042520767674
2	1268	12.4	11.092574140606
2	1300	12.8	10.980365624689
2	1348	13.2	11.105956320176
2	1380	13.6	11.036351692528
2	1428	14	10.943476031432
2	1460	14.4	10.918568969136
2	1492	14.8	10.954368648622
2	1540	15.2	11.081929844515
2	1572	15.6	10.935997570949
2	1620	16	10.935982549787
2	1652	16.4	10.914276331421
2	1740	16.8	11.015278391996
2	1788	17.2	10.950168287233
2	1820	17.6	10.9498178495
2	1868	18	11.01770412744
2	1900	18.4	11.005904503902
2	1932	18.8	10.95389416487
2	1980	19.2	10.974224093268
2	2012	19.6	11.086345115248
2	2060	20	10.965873469682
2	2092	20.4	10.982015796602
2	2124	20.8	10.993596041752
2	2172	21.2	11.0813293429
2	2260	21.6	11.002525354354
2	2308	22	10.921066216277
2	2340	22.4	10.958276875913
2	2372	22.8	11.005630334364
2	2420	23.2	11.088818478715
2	2452	23.6	11.027067611776
2	2500	24	11.015279915454
2	2532	24.4	11.057088877717
2	2564	24.8	11.072733531091
2	2612	25.2	10.955153262699
2	2644	25.6	10.962616364416
2	2692	26	11.018769932808
2	2780	26.4	11.066689928658
2	2812	26.8	10.996313210335
2	2860	27.2	11.082956365347
2	2892	27.6	11.106242040396
2	2940	28	11.045171799175
2	2972	28.4	10.98647289983
2	3004	28.8	11.080065027243
2	3052	29.2	10.987580855507
2	3084	29.6	11.065535722896
2	3132	30	10.98661320027
2	3160	30.4	11.032702204389
2	3188	30.8	10.921250384944
2	3268	31.2	10.929480305724
2	3296	31.6	10.973635940431
2	3336	32	11.020010002088
2	3364	32.4	11.038098419588
2	3392	32.8	10.987387307631
2	3432	33.2	11.022593609467
2	3460	33.6	10.929530284358
2	3500	34	10.970473760916
2	3517	34.4	11.090143929692
2	3534	34.8	11.0979549067
2	3563	35.2	10.91603818628
2	3580	35.6	10.976646657744
2	3609	36	10.97937199356
2	3626	36.4	10.97587242526
2	3643	36.8	11.075818082774
2	3672	37.2	11.067923487667
2	3689	37.6	11.03836956596
2	3718	38	11.08421474033
2	3735	38.4	10.959862772226
2	3752	38.8	11.046914330069
2	3781	39.2	10.988433866659
2	3798	39.6	11.037257845318
2	3827	40	11.044990554489
2	3844	40.4	10.99596064481
2	3861	40.8	11.102314914893
2	3890	41.2	11.022279697321
2	3907	41.6	10.983145189369
2	3936	42	10.912325233631
2	3953	42.4	10.918210146148
2	3970	42.8	11.089591038637
2	3999	43.2	10.979441936212
2	4016	43.6	11.068224648284
2	4045	44	10.982988224588
2	4062	44.4	11.077738097766
2	4079	44.8	10.910940086879
2	4108	45.2	10.979378335588
1	9	0.4	36.55
1	25	0.8	36.55
1	58	1.2	36.55
1	75	1.6	36.55
1	108	2	36.55
1	196	2.4	36.55
1	228	2.8	36.55
1	276	3.2	36.55
1	308	3.6	36.55
1	356	4	36.55
1	388	4.4	36.55
1	420	4.8	36.55
1	468	5.2	36.55
1	500	5.6	36.55
1	548	6	36.55
1	580	6.4	36.55
1	612	6.8	36.55
1	716	7.2	36.55
1	748	7.6	36.55
1	796	8	36.55
1	828	8.4	36.55
1	860	8.8	36.55
1	908	9.2	36.55
1	940	9.6	36.55
1	988	10	36.55
1	1020	10.4	36.55
1	1052	10.8	36.55
1	1100	11.2	36.55
1	1132	11.6	36.55
1	1236	12	36.55
1	1268	12.4	36.55
1	1300	12.8	36.55
1	1348	13.2	36.55
1	1380	13.6	36.55
1	1428	14	36.55
1	1460	14.4	36.55
1	1492	14.8	36.55
1	1540	15.2	36.55
1	1572	15.6	36.55
1	1620	16	36.55
1	1652	16.4	36.55
1	1740	16.8	36.55
1	1788	17.2	36.55
1	1820	17.6	36.55
1	1868	18	36.55
1	1900	18.4	36.55
1	1932	18.8	36.55
1	1980	19.2	36.55
1	2012	19.6	36.55
1	2060	20	36.55
1	2092	20.4	36.55
1	2124	20.8	36.55
1	2172	21.2	36.55
1	2260	21.6	36.55
1	2308	22	36.55
1	2340	22.4	36.55
1	2372	22.8	36.55
1	2420	23.2	36.55
1	2452	23.6	36.55
1	2500	24	36.55
1	2532	24.4	36.55
1	2564	24.8	36.55
1	2612	25.2	36.55
1	2644	25.6	36.55
1	2692	26	36.55
1	2780	26.4	36.55
1	2812	26.8	36.55
1	2860	27.2	36.55
1	2892	27.6	36.55
1	2940	28	36.55
1	2972	28.4	36.55
1	3004	28.8	36.55
1	3052	29.2	36.55
1	3084	29.6	36.55
1	3132	30	36.55
1	3160	30.4	36.55
1	3188	30.8	36.55
1	3268	31.2	36.55
1	3296	31.6	36.55
1	3336	32	36.55
1	3364	32.4	36.55
1	3392	32.8	36.55
1	3432	33.2	36.55
1	3460	33.6	36.55
1	3500	34	36.55
1	3517	34.4	36.55
1	3534	34.8	36.55
1	3563	35.2	36.55
1	3580	35.6	36.55
1	3609	36	36.55
1	3626	36.4	36.55
1	3643	36.8	36.55
1	3672	37.2	36.55
1	3689	37.6	36.55
1	3718	38	36.55
1	3735	38.4	36.55
1	3752	38.8	36.55
1	3781	39.2	36.55
1	3798	39.6	36.55
1	3827	40	36.55
1	3844	40.4	36.55
1	3861	40.8	36.55
1	3890	41.2	36.55
1	3907	41.6	36.55
1	3936	42	36.55
1	3953	42.4	36.55
1	3970	42.8	36.55
1	3999	43.2	36.55
1	4016	43.6	36.55
1	4045	44	36.55
1	4062	44.4	36.55
1	4079	44.8	36.55
1	4108	45.2	36.55
0	9	0.4	32.128
0	25	0.8	32.128
0	58	1.2	40.833213412764
0	75	1.6	49.519047417352
0	108	2	58.184435723489
0	196	2.4	66.888078005621
0	228	2.8	75.551299419437
0	276	3.2	84.264109924139
0	308	3.6	92.929025248958
0	356	4	101.66103832915
0	388	4.4	110.36138583964
0	420	4.8	119.05819621181
0	468	5.2	127.79643014922
0	500	5.6	136.52623633516
0	548	6	145.27822685369
0	580	6.4	153.93609001021
0	612	6.8	162.72622667486
0	716	7.2	171.37270249303
0	748	7.6	180.12863373598
0	796	8	188.867016599
0	828	8.4	197.59047444532
0	860	8.8	206.26418520002
0	908	9.2	214.93465767375
0	940	9.6	223.65000071818
0	988	10	232.37309233423
0	1020	10.4	241.08223407533
0	1052	10.8	249.81913696409
0	1100	11.2	258.47164245739
0	1132	11.6	267.13832758041
0	1236	12	275.92619546871
0	1268	12.4	284.6718719167
0	1300	12.8	293.45719063606
0	1348	13.2	302.15364021082
0	1380	13.6	310.9495576164
0	1428	14	319.69034815688
0	1460	14.4	328.35758117377
0	1492	14.8	337.00508779733
0	1540	15.2	345.68094776704
0	1572	15.6	354.45783620389
0	1620	16	363.11914628009
0	1652	16.4	371.78044445952
0	1740	16.8	380.424551314
0	1788	17.2	389.14865180046
0	1820	17.6	397.82118508395
0	1868	18	406.49344082076
0	1900	18.4	415.21946248969
0	1932	18.8	423.93613885678
0	1980	19.2	432.61162303536
0	2012	19.6	441.30320851722
0	2060	20	450.0835938485
0	2092	20.4	458.76856563649
0	2124	20.8	467.4663221474
0	2172	21.2	476.17325021246
0	2260	21.6	484.94966305204
0	2308	22	493.66366313269
0	2340	22.4	502.31314757598
0	2372	22.8	510.9921028617
0	2420	23.2	519.70856208652
0	2452	23.6	528.49090632166
0	2500	24	537.22434387019
0	2532	24.4	545.94844556323
0	2564	24.8	554.70565995438
0	2612	25.2	563.475264911
0	2644	25.6	572.15174629506
0	2692	26	580.83413845568
0	2780	26.4	589.56100424246
0	2812	26.8	598.32582266596
0	2860	27.2	607.03490272855
0	2892	27.6	615.8126041699
0	2940	28	624.60874786589
0	2972	28.4	633.35652393084
0	3004	28.8	642.05781046751
0	3052	29.2	650.83322196908
0	3084	29.6	659.53538600664
0	3132	30	668.29929029918
0	3160	30.4	677.00068795379
0	3188	30.8	685.73858809967
0	3268	31.2	694.38821840454
0	3296	31.6	703.04436680668
0	3336	32	711.7354864715
0	3364	32.4	720.46333439315
0	3392	32.8	729.20550834147
0	3432	33.2	737.90751908911
0	3460	33.6	746.63741322781
0	3500	34	755.29360121302
0	3517	34.4	763.98221643166
0	3534	34.8	772.76561042398
0	3563	35.2	781.55519071009
0	3580	35.6	790.20069295362
0	3609	36	798.89419710655
0	3626	36.4	807.58985972545
0	3643	36.8	816.28275068626
0	3672	37.2	825.05479860782
0	3689	37.6	833.82059401005
0	3718	38	842.56298270629
0	3735	38.4	851.34168078063
0	3752	38.8	860.02189209623
0	3781	39.2	868.77104824565
0	3798	39.6	877.47388786804
0	3827	40	886.21539608154
0	3844	40.4	894.96302860069
0	3861	40.8	903.67182943138
0	3890	41.2	912.46486284398
0	3907	41.6	921.19450836425
0	3936	42	929.89315935423
0	3953	42.4	938.53572093927
0	3970	42.8	947.18294337502
0	3999	43.2	955.96589947762
0	4016	43.6	964.6616174911
0	4045	44	973.42765141254
0	4062	44.4	982.12617808641
0	4079	44.8	990.89974665984
0	4108	45.2	999.54121120865

