version 2
run General-0-20190128-21:58:25-8096
attr configname General
attr datetime 20190128-21:58:25
attr experiment General
attr inifile omnetpp.ini
attr iterationvars ""
attr iterationvarsf ""
attr measurement ""
attr network com.liborio.slicing.SlicingScenario
attr processid 8096
attr repetition 0
attr replication #0
attr resultdir results
attr runnumber 0
attr seedset 0
param **.debug false
param **.coreDebug false
param *.playgroundSizeX 1200m
param *.playgroundSizeY 1200m
param *.playgroundSizeZ 50m
param *.annotations.draw true
param *.manager.updateInterval 0.4s
param *.manager.host "\"localhost\""
param *.manager.port 9999
param *.manager.autoShutdown true
param *.manager.launchConfig "xmldoc(\"highway.launchd.xml\")"
param *.connectionManager.sendDirect true
param *.connectionManager.maxInterfDist 2600m
param *.connectionManager.drawMaxIntfDist false
param *.rsu[*].applType "\"RSUApp\""
param *.rsu[*].appl.headerLength "80 bit"
param *.rsu[*].appl.sendBeacons false
param *.rsu[*].appl.dataOnSch true
param *.rsu[*].appl.beaconInterval 1s
param *.rsu[*].appl.beaconUserPriority 7
param *.rsu[*].appl.dataUserPriority 5
param *.rsu[*].nic.mac1609_4.useServiceChannel true
param *.rsu[*].nic.mac1609_4.txPower 20mW
param *.rsu[*].nic.mac1609_4.bitrate 6Mbps
param *.rsu[*].nic.phy80211p.sensitivity -89dBm
param *.rsu[0].mobility.x 515.0
param *.rsu[0].mobility.y 25.0
param *.rsu[0].mobility.z 3
param *.node[*].applType "\"VehApp\""
param *.node[*].appl.headerLength "80 bit"
param *.node[*].appl.sendBeacons true
param *.node[*].appl.dataOnSch true
param *.node[*].appl.beaconInterval 1s
param *.node[*].appl.wsaInterval 1s
param *.node[*].nic.mac1609_4.useServiceChannel true
param *.node[*].nic.mac1609_4.txPower 20mW
param *.node[*].nic.mac1609_4.bitrate 6Mbps
param *.node[*].nic.phy80211p.sensitivity -84.39dBm
param *.node[*].veinsmobilityType.debug true
param *.node[*].veinsmobility.x 0
param *.node[*].veinsmobility.y 0
param *.node[*].veinsmobility.z 1.895
param *.**.nic.phy80211p.useThermalNoise true
param *.**.nic.phy80211p.thermalNoise -110dBm
param *.**.nic.phy80211p.decider "xmldoc(\"config.xml\")"
param *.**.nic.phy80211p.analogueModels "xmldoc(\"config.xml\")"
param *.**.nic.phy80211p.usePropagationDelay true
param *.**.nic.phy80211p.antenna "xmldoc(\"antenna.xml\", \"/root/Antenna[@id='monopole']\")"

vector 0 SlicingScenario.node[0].veinsmobility posx ETV
vector 1 SlicingScenario.node[0].veinsmobility posy ETV
vector 2 SlicingScenario.node[0].veinsmobility speed ETV
vector 3 SlicingScenario.node[1].veinsmobility posx ETV
vector 4 SlicingScenario.node[1].veinsmobility posy ETV
vector 5 SlicingScenario.node[0].veinsmobility acceleration ETV
vector 6 SlicingScenario.node[0].veinsmobility co2emission ETV
vector 7 SlicingScenario.node[1].veinsmobility speed ETV
vector 8 SlicingScenario.node[1].veinsmobility acceleration ETV
vector 9 SlicingScenario.node[1].veinsmobility co2emission ETV
vector 10 SlicingScenario.node[2].veinsmobility posx ETV
vector 11 SlicingScenario.node[2].veinsmobility posy ETV
vector 12 SlicingScenario.node[2].veinsmobility speed ETV
vector 13 SlicingScenario.node[3].veinsmobility posx ETV
vector 14 SlicingScenario.node[3].veinsmobility posy ETV
vector 15 SlicingScenario.node[2].veinsmobility acceleration ETV
vector 16 SlicingScenario.node[2].veinsmobility co2emission ETV
vector 17 SlicingScenario.node[3].veinsmobility speed ETV
vector 18 SlicingScenario.node[3].veinsmobility acceleration ETV
vector 19 SlicingScenario.node[3].veinsmobility co2emission ETV
vector 20 SlicingScenario.node[4].veinsmobility posx ETV
vector 21 SlicingScenario.node[4].veinsmobility posy ETV
vector 22 SlicingScenario.node[4].veinsmobility speed ETV
vector 23 SlicingScenario.node[5].veinsmobility posx ETV
vector 24 SlicingScenario.node[5].veinsmobility posy ETV
vector 25 SlicingScenario.node[4].veinsmobility acceleration ETV
vector 26 SlicingScenario.node[4].veinsmobility co2emission ETV
vector 27 SlicingScenario.node[5].veinsmobility speed ETV
vector 28 SlicingScenario.node[5].veinsmobility acceleration ETV
vector 29 SlicingScenario.node[5].veinsmobility co2emission ETV
vector 30 SlicingScenario.node[6].veinsmobility posx ETV
vector 31 SlicingScenario.node[6].veinsmobility posy ETV
vector 32 SlicingScenario.node[6].veinsmobility speed ETV
vector 33 SlicingScenario.node[7].veinsmobility posx ETV
vector 34 SlicingScenario.node[7].veinsmobility posy ETV
vector 35 SlicingScenario.node[6].veinsmobility acceleration ETV
vector 36 SlicingScenario.node[6].veinsmobility co2emission ETV
vector 37 SlicingScenario.node[7].veinsmobility speed ETV
vector 38 SlicingScenario.node[7].veinsmobility acceleration ETV
vector 39 SlicingScenario.node[7].veinsmobility co2emission ETV
vector 40 SlicingScenario.node[8].veinsmobility posx ETV
vector 41 SlicingScenario.node[8].veinsmobility posy ETV
vector 42 SlicingScenario.node[8].veinsmobility speed ETV
vector 43 SlicingScenario.node[9].veinsmobility posx ETV
vector 44 SlicingScenario.node[9].veinsmobility posy ETV
vector 45 SlicingScenario.node[8].veinsmobility acceleration ETV
vector 46 SlicingScenario.node[8].veinsmobility co2emission ETV
vector 47 SlicingScenario.node[9].veinsmobility speed ETV
vector 48 SlicingScenario.node[9].veinsmobility acceleration ETV
vector 49 SlicingScenario.node[9].veinsmobility co2emission ETV
vector 50 SlicingScenario.node[10].veinsmobility posx ETV
vector 51 SlicingScenario.node[10].veinsmobility posy ETV
vector 52 SlicingScenario.node[10].veinsmobility speed ETV
vector 53 SlicingScenario.node[11].veinsmobility posx ETV
vector 54 SlicingScenario.node[11].veinsmobility posy ETV
vector 55 SlicingScenario.node[10].veinsmobility acceleration ETV
vector 56 SlicingScenario.node[10].veinsmobility co2emission ETV
vector 57 SlicingScenario.node[11].veinsmobility speed ETV
vector 58 SlicingScenario.node[11].veinsmobility acceleration ETV
vector 59 SlicingScenario.node[11].veinsmobility co2emission ETV
vector 60 SlicingScenario.node[12].veinsmobility posx ETV
vector 61 SlicingScenario.node[12].veinsmobility posy ETV
vector 62 SlicingScenario.node[12].veinsmobility speed ETV
vector 63 SlicingScenario.node[13].veinsmobility posx ETV
vector 64 SlicingScenario.node[13].veinsmobility posy ETV
vector 65 SlicingScenario.node[12].veinsmobility acceleration ETV
vector 66 SlicingScenario.node[12].veinsmobility co2emission ETV
vector 67 SlicingScenario.node[13].veinsmobility speed ETV
vector 68 SlicingScenario.node[13].veinsmobility acceleration ETV
vector 69 SlicingScenario.node[13].veinsmobility co2emission ETV
vector 70 SlicingScenario.node[14].veinsmobility posx ETV
vector 71 SlicingScenario.node[14].veinsmobility posy ETV
vector 72 SlicingScenario.node[14].veinsmobility speed ETV
vector 73 SlicingScenario.node[15].veinsmobility posx ETV
vector 74 SlicingScenario.node[15].veinsmobility posy ETV
vector 75 SlicingScenario.node[14].veinsmobility acceleration ETV
vector 76 SlicingScenario.node[14].veinsmobility co2emission ETV
vector 77 SlicingScenario.node[15].veinsmobility speed ETV
vector 78 SlicingScenario.node[15].veinsmobility acceleration ETV
vector 79 SlicingScenario.node[15].veinsmobility co2emission ETV
vector 80 SlicingScenario.node[16].veinsmobility posx ETV
vector 81 SlicingScenario.node[16].veinsmobility posy ETV
vector 82 SlicingScenario.node[16].veinsmobility speed ETV
vector 83 SlicingScenario.node[17].veinsmobility posx ETV
vector 84 SlicingScenario.node[17].veinsmobility posy ETV
vector 85 SlicingScenario.node[16].veinsmobility acceleration ETV
vector 86 SlicingScenario.node[16].veinsmobility co2emission ETV
vector 87 SlicingScenario.node[17].veinsmobility speed ETV
vector 88 SlicingScenario.node[17].veinsmobility acceleration ETV
vector 89 SlicingScenario.node[17].veinsmobility co2emission ETV
vector 90 SlicingScenario.node[18].veinsmobility posx ETV
vector 91 SlicingScenario.node[18].veinsmobility posy ETV
vector 92 SlicingScenario.node[18].veinsmobility speed ETV
vector 93 SlicingScenario.node[19].veinsmobility posx ETV
vector 94 SlicingScenario.node[19].veinsmobility posy ETV
vector 95 SlicingScenario.node[18].veinsmobility acceleration ETV
vector 96 SlicingScenario.node[18].veinsmobility co2emission ETV
vector 97 SlicingScenario.node[19].veinsmobility speed ETV
vector 98 SlicingScenario.node[19].veinsmobility acceleration ETV
vector 99 SlicingScenario.node[19].veinsmobility co2emission ETV
vector 100 SlicingScenario.node[20].veinsmobility posx ETV
vector 101 SlicingScenario.node[20].veinsmobility posy ETV
vector 102 SlicingScenario.node[20].veinsmobility speed ETV
vector 103 SlicingScenario.node[21].veinsmobility posx ETV
vector 104 SlicingScenario.node[21].veinsmobility posy ETV
vector 105 SlicingScenario.node[20].veinsmobility acceleration ETV
vector 106 SlicingScenario.node[20].veinsmobility co2emission ETV
vector 107 SlicingScenario.node[21].veinsmobility speed ETV
vector 108 SlicingScenario.node[21].veinsmobility acceleration ETV
vector 109 SlicingScenario.node[21].veinsmobility co2emission ETV
vector 110 SlicingScenario.node[22].veinsmobility posx ETV
vector 111 SlicingScenario.node[22].veinsmobility posy ETV
vector 112 SlicingScenario.node[22].veinsmobility speed ETV
vector 113 SlicingScenario.node[23].veinsmobility posx ETV
vector 114 SlicingScenario.node[23].veinsmobility posy ETV
vector 115 SlicingScenario.node[22].veinsmobility acceleration ETV
vector 116 SlicingScenario.node[22].veinsmobility co2emission ETV
vector 117 SlicingScenario.node[23].veinsmobility speed ETV
vector 118 SlicingScenario.node[23].veinsmobility acceleration ETV
vector 119 SlicingScenario.node[23].veinsmobility co2emission ETV
vector 120 SlicingScenario.node[24].veinsmobility posx ETV
vector 121 SlicingScenario.node[24].veinsmobility posy ETV
vector 122 SlicingScenario.node[24].veinsmobility speed ETV
vector 123 SlicingScenario.node[25].veinsmobility posx ETV
vector 124 SlicingScenario.node[25].veinsmobility posy ETV
vector 125 SlicingScenario.node[24].veinsmobility acceleration ETV
vector 126 SlicingScenario.node[24].veinsmobility co2emission ETV
vector 127 SlicingScenario.node[25].veinsmobility speed ETV
vector 128 SlicingScenario.node[25].veinsmobility acceleration ETV
vector 129 SlicingScenario.node[25].veinsmobility co2emission ETV
vector 130 SlicingScenario.node[26].veinsmobility posx ETV
vector 131 SlicingScenario.node[26].veinsmobility posy ETV
vector 132 SlicingScenario.node[26].veinsmobility speed ETV
vector 133 SlicingScenario.node[27].veinsmobility posx ETV
vector 134 SlicingScenario.node[27].veinsmobility posy ETV
vector 135 SlicingScenario.node[26].veinsmobility acceleration ETV
vector 136 SlicingScenario.node[26].veinsmobility co2emission ETV
vector 137 SlicingScenario.node[27].veinsmobility speed ETV
vector 138 SlicingScenario.node[27].veinsmobility acceleration ETV
vector 139 SlicingScenario.node[27].veinsmobility co2emission ETV
vector 140 SlicingScenario.node[28].veinsmobility posx ETV
vector 141 SlicingScenario.node[28].veinsmobility posy ETV
vector 142 SlicingScenario.node[28].veinsmobility speed ETV
vector 143 SlicingScenario.node[29].veinsmobility posx ETV
vector 144 SlicingScenario.node[29].veinsmobility posy ETV
vector 145 SlicingScenario.node[28].veinsmobility acceleration ETV
vector 146 SlicingScenario.node[28].veinsmobility co2emission ETV
vector 147 SlicingScenario.node[29].veinsmobility speed ETV
vector 148 SlicingScenario.node[29].veinsmobility acceleration ETV
vector 149 SlicingScenario.node[29].veinsmobility co2emission ETV
vector 150 SlicingScenario.node[30].veinsmobility posx ETV
vector 151 SlicingScenario.node[30].veinsmobility posy ETV
vector 152 SlicingScenario.node[30].veinsmobility speed ETV
vector 153 SlicingScenario.node[31].veinsmobility posx ETV
vector 154 SlicingScenario.node[31].veinsmobility posy ETV
vector 155 SlicingScenario.node[30].veinsmobility acceleration ETV
vector 156 SlicingScenario.node[30].veinsmobility co2emission ETV
vector 157 SlicingScenario.node[31].veinsmobility speed ETV
vector 158 SlicingScenario.node[31].veinsmobility acceleration ETV
vector 159 SlicingScenario.node[31].veinsmobility co2emission ETV
vector 160 SlicingScenario.node[32].veinsmobility posx ETV
vector 161 SlicingScenario.node[32].veinsmobility posy ETV
vector 162 SlicingScenario.node[32].veinsmobility speed ETV
vector 163 SlicingScenario.node[33].veinsmobility posx ETV
vector 164 SlicingScenario.node[33].veinsmobility posy ETV
vector 165 SlicingScenario.node[32].veinsmobility acceleration ETV
vector 166 SlicingScenario.node[32].veinsmobility co2emission ETV
vector 167 SlicingScenario.node[33].veinsmobility speed ETV
vector 168 SlicingScenario.node[33].veinsmobility acceleration ETV
vector 169 SlicingScenario.node[33].veinsmobility co2emission ETV
vector 170 SlicingScenario.node[34].veinsmobility posx ETV
vector 171 SlicingScenario.node[34].veinsmobility posy ETV
vector 172 SlicingScenario.node[34].veinsmobility speed ETV
vector 173 SlicingScenario.node[35].veinsmobility posx ETV
vector 174 SlicingScenario.node[35].veinsmobility posy ETV
vector 175 SlicingScenario.node[34].veinsmobility acceleration ETV
vector 176 SlicingScenario.node[34].veinsmobility co2emission ETV
vector 177 SlicingScenario.node[35].veinsmobility speed ETV
vector 178 SlicingScenario.node[35].veinsmobility acceleration ETV
vector 179 SlicingScenario.node[35].veinsmobility co2emission ETV
vector 180 SlicingScenario.node[36].veinsmobility posx ETV
vector 181 SlicingScenario.node[36].veinsmobility posy ETV
vector 182 SlicingScenario.node[36].veinsmobility speed ETV
vector 183 SlicingScenario.node[37].veinsmobility posx ETV
vector 184 SlicingScenario.node[37].veinsmobility posy ETV
vector 185 SlicingScenario.node[36].veinsmobility acceleration ETV
vector 186 SlicingScenario.node[36].veinsmobility co2emission ETV
vector 187 SlicingScenario.node[37].veinsmobility speed ETV
vector 188 SlicingScenario.node[37].veinsmobility acceleration ETV
vector 189 SlicingScenario.node[37].veinsmobility co2emission ETV
vector 190 SlicingScenario.node[38].veinsmobility posx ETV
vector 191 SlicingScenario.node[38].veinsmobility posy ETV
vector 192 SlicingScenario.node[38].veinsmobility speed ETV
vector 193 SlicingScenario.node[39].veinsmobility posx ETV
vector 194 SlicingScenario.node[39].veinsmobility posy ETV
vector 195 SlicingScenario.node[38].veinsmobility acceleration ETV
vector 196 SlicingScenario.node[38].veinsmobility co2emission ETV
vector 197 SlicingScenario.node[39].veinsmobility speed ETV
vector 198 SlicingScenario.node[39].veinsmobility acceleration ETV
vector 199 SlicingScenario.node[39].veinsmobility co2emission ETV
vector 200 SlicingScenario.node[40].veinsmobility posx ETV
vector 201 SlicingScenario.node[40].veinsmobility posy ETV
vector 202 SlicingScenario.node[40].veinsmobility speed ETV
vector 203 SlicingScenario.node[41].veinsmobility posx ETV
vector 204 SlicingScenario.node[41].veinsmobility posy ETV
vector 205 SlicingScenario.node[40].veinsmobility acceleration ETV
vector 206 SlicingScenario.node[40].veinsmobility co2emission ETV
vector 207 SlicingScenario.node[41].veinsmobility speed ETV
vector 208 SlicingScenario.node[41].veinsmobility acceleration ETV
vector 209 SlicingScenario.node[41].veinsmobility co2emission ETV
vector 210 SlicingScenario.node[42].veinsmobility posx ETV
vector 211 SlicingScenario.node[42].veinsmobility posy ETV
vector 212 SlicingScenario.node[42].veinsmobility speed ETV
vector 213 SlicingScenario.node[43].veinsmobility posx ETV
vector 214 SlicingScenario.node[43].veinsmobility posy ETV
vector 215 SlicingScenario.node[42].veinsmobility acceleration ETV
vector 216 SlicingScenario.node[42].veinsmobility co2emission ETV
vector 217 SlicingScenario.node[43].veinsmobility speed ETV
vector 218 SlicingScenario.node[43].veinsmobility acceleration ETV
vector 219 SlicingScenario.node[43].veinsmobility co2emission ETV
vector 220 SlicingScenario.node[44].veinsmobility posx ETV
vector 221 SlicingScenario.node[44].veinsmobility posy ETV
vector 222 SlicingScenario.node[44].veinsmobility speed ETV
vector 223 SlicingScenario.node[45].veinsmobility posx ETV
vector 224 SlicingScenario.node[45].veinsmobility posy ETV
vector 225 SlicingScenario.node[44].veinsmobility acceleration ETV
vector 226 SlicingScenario.node[44].veinsmobility co2emission ETV
6	58	1.2	1.5992170877715
6	82	1.6	1.9116113944541
6	150	2	1.8404073099414
6	236	2.4	1.9267219251796
6	283	2.8	1.7469311507971
6	390	3.2	2.2810703276829
6	484	3.6	1.206074053728
6	613	4	1.7616735533417
6	741	4.4	1.2893699918118
6	986	4.8	2.3887404831623
6	1176	5.2	0.973
6	1433	5.6	2.2276361172472
6	1692	6	1.6815458978651
6	1913	6.4	2.4070657555836
6	2157	6.8	1.6215172404188
6	2860	7.2	1.2388777560279
6	3710	7.6	1.7612841218763
6	4237	8	1.7088888839952
6	4672	8.4	1.8226453087963
6	5090	8.8	1.7024338284703
6	5999	9.2	2.0125206074579
6	7783	9.6	1.3479832749529
6	8764	10	1.9000248461591
6	9445	10.4	2.0606683062827
6	10428	10.8	2.2147654940565
6	11060	11.2	0.973
6	11951	11.6	2.0231593637797
6	13528	12	2.6385630905776
6	14968	12.4	0.973
6	16397	12.8	2.449273276875
6	17556	13.2	2.0315044275871
6	18966	13.6	1.5344172418018
6	20283	14	1.7590533798007
6	21906	14.4	1.4664472673552
6	24217	14.8	2.5084711656517
6	26262	15.2	1.6809597587089
6	28490	15.6	0.973
6	30641	16	2.0306610816245
6	32571	16.4	1.5186889425978
6	35494	16.8	1.9876097399249
6	37561	17.2	1.8761062261364
6	40278	17.6	2.3441917690947
6	43035	18	1.4503239271114
6	45509	18.4	1.7545127707513
6	48681	18.8	0.973
6	52187	19.2	2.8927587183812
6	55540	19.6	1.8886397404851
6	60085	20	1.7280151415539
6	63465	20.4	0.973
6	67954	20.8	1.5396875395936
6	71871	21.2	2.5479669399056
6	76613	21.6	1.4770308584744
6	82472	22	1.9843421556031
6	87351	22.4	1.1823701241487
6	92459	22.8	1.8897209180578
6	97271	23.2	2.3215847713184
6	102340	23.6	1.2268293025295
6	108163	24	1.5591946162088
6	113581	24.4	1.4131694041204
6	120318	24.8	2.3745938944964
6	125966	25.2	1.9024787290781
6	132438	25.6	1.260403586789
6	138083	26	1.7386559829612
6	144262	26.4	2.707723374461
6	151165	26.8	1.6130869966151
6	157262	27.2	1.9119677269473
6	165408	27.6	0.973
6	173820	28	1.8038947154778
6	180489	28.4	2.1861062099538
6	188863	28.8	2.342482187588
6	196999	29.2	1.8880284156208
6	205431	29.6	0.973
6	212919	30	2.7873350905659
6	220697	30.4	0.973
6	228795	30.8	2.3004927074425
6	239339	31.2	1.5323607118229
6	249530	31.6	1.5904132937507
6	258534	32	2.3423419351726
6	267378	32.4	1.2772799571626
6	277217	32.8	2.8335116924101
6	286502	33.2	0.973
6	297294	33.6	1.2778302290735
6	307273	34	2.9432408747212
6	317194	34.4	1.3489357501119
6	329525	34.8	1.5313532976112
6	341566	35.2	1.6076498226187
6	351747	35.6	1.4112085302803
6	363428	36	2.7843722401202
6	375173	36.4	1.2336583581036
6	386801	36.8	1.2866873539317
6	398456	37.2	1.6382106337484
6	411241	37.6	2.8976088282377
6	422856	38	0.973
6	436558	38.4	2.3398636928793
6	450508	38.8	1.8643545733367
6	464228	39.2	1.4072641122975
6	477942	39.6	1.8234210687115
6	493241	40	1.2271063950822
6	506135	40.4	2.0526819631756
6	521971	40.8	1.9988569760198
6	538377	41.2	1.3485308581624
6	554115	41.6	1.7282498779196
6	569288	42	1.8383487648095
6	584394	42.4	2.5733622892265
6	601204	42.8	0.973
6	618139	43.2	2.0905597612286
6	636780	43.6	2.663007399387
6	653797	44	0.973
6	668960	44.4	1.5524768991658
6	687791	44.8	2.1740132908019
6	703107	45.2	1.8159106746318
5	58	1.2	-0.061172374291343
5	82	1.6	0.056212997296825
5	150	2	0.028940096497534
5	236	2.4	0.060614190297201
5	283	2.8	-0.0069662065943676
5	390	3.2	0.19043711712584
5	484	3.6	-0.21047606796492
5	613	4	-0.0011560298735303
5	741	4.4	-0.17805079871323
5	986	4.8	0.23391861573328
5	1176	5.2	-0.25088530394714
5	1433	5.6	0.17476733238436
5	1692	6	-0.030771155375988
5	1913	6.4	0.23805609240663
5	2157	6.8	-0.055321375140922
5	2860	7.2	-0.19777268287726
5	3710	7.6	-0.00048386969138114
5	4237	8	-0.020038285176267
5	4672	8.4	0.022654682747087
5	5090	8.8	-0.022479826118795
5	5999	9.2	0.093239773064848
5	7783	9.6	-0.15601735445671
5	8764	10	0.052342925337143
5	9445	10.4	0.11125020857435
5	10428	10.8	0.16621574980673
5	11060	11.2	-0.37318742484786
5	11951	11.6	0.098846093867904
5	13528	12	0.32365141285118
5	14968	12.4	-0.47104049718473
5	16397	12.8	0.25753158319276
5	17556	13.2	0.09866455174051
5	18966	13.6	-0.087029384449124
5	20283	14	-0.0024568273220194
5	21906	14.4	-0.11166728788521
5	24217	14.8	0.27593819389585
5	26262	15.2	-0.03331031568814
5	28490	15.6	-0.27760404360015
5	30641	16	0.10050950106233
5	32571	16.4	-0.09168889815919
5	35494	16.8	0.084390801028347
5	37561	17.2	0.041761879576372
5	40278	17.6	0.21371515467763
5	43035	18	-0.11932182463352
5	45509	18.4	-0.005109827616252
5	48681	18.8	-0.34195441135671
5	52187	19.2	0.41995949926786
5	55540	19.6	0.043539445847274
5	60085	20	-0.016292663407511
5	63465	20.4	-0.27171858481597
5	67954	20.8	-0.083425276330673
5	71871	21.2	0.29173905053176
5	76613	21.6	-0.10869662696496
5	82472	22	0.080936977523378
5	87351	22.4	-0.21895706059877
5	92459	22.8	0.047840848565102
5	97271	23.2	0.20674384396989
5	102340	23.6	-0.20240521931555
5	108163	24	-0.076237477129326
5	113581	24.4	-0.13051608984824
5	120318	24.8	0.23029016971122
5	125966	25.2	0.051526731462217
5	132438	25.6	-0.18911355931778
5	138083	26	-0.007768304552882
5	144262	26.4	0.35074978484772
5	151165	26.8	-0.058373682317323
5	157262	27.2	0.052977603161706
5	165408	27.6	-0.38245456060395
5	173820	28	0.017221304355188
5	180489	28.4	0.15932024689391
5	188863	28.8	0.21398740902077
5	196999	29.2	0.043301613884976
5	205431	29.6	-0.44662398588843
5	212919	30	0.38105875393376
5	220697	30.4	-0.41886589000933
5	228795	30.8	0.20294079277664
5	239339	31.2	-0.08624065516051
5	249530	31.6	-0.063619493157603
5	258534	32	0.21737110265531
5	267378	32.4	-0.182673988631
5	277217	32.8	0.39660824730527
5	286502	33.2	-0.24228474707343
5	297294	33.6	-0.18230637907982
5	307273	34	0.43725607008673
5	317194	34.4	-0.15718657767866
5	329525	34.8	-0.087862162152303
5	341566	35.2	-0.058514337753879
5	351747	35.6	-0.13170670566615
5	363428	36	0.37936902523506
5	375173	36.4	-0.1999882395612
5	386801	36.8	-0.17895924067125
5	398456	37.2	-0.045092080370526
5	411241	37.6	0.42181040684227
5	422856	38	-0.35337071295362
5	436558	38.4	0.215814180905
5	450508	38.8	0.03644985042047
5	464228	39.2	-0.13426200451795
5	477942	39.6	0.022539103869348
5	493241	40	-0.20138048019726
5	506135	40.4	0.11049834359437
5	521971	40.8	0.088744553504512
5	538377	41.2	-0.15553425066173
5	554115	41.6	-0.011347813415341
5	569288	42	0.030032736365686
5	584394	42.4	0.30161243176553
5	601204	42.8	-0.35146362148225
5	618139	43.2	0.12438636540901
5	636780	43.6	0.33265381411184
5	653797	44	-0.30756114562973
5	668960	44.4	-0.078542125760577
5	687791	44.8	0.15412776323501
5	703107	45.2	0.018986364826556
2	25	0.8	10.991431076722
2	58	1.2	10.966962127006
2	82	1.6	10.989447325924
2	150	2	11.001023364523
2	236	2.4	11.025269040642
2	283	2.8	11.022482558005
2	390	3.2	11.098657404855
2	484	3.6	11.014466977669
2	613	4	11.01400456572
2	741	4.4	10.942784246234
2	986	4.8	11.036351692528
2	1176	5.2	10.935997570949
2	1433	5.6	11.005904503902
2	1692	6	10.993596041752
2	1913	6.4	11.088818478715
2	2157	6.8	11.066689928658
2	2860	7.2	10.987580855507
2	3710	7.6	10.987387307631
2	4237	8	10.97937199356
2	4672	8.4	10.988433866659
2	5090	8.8	10.979441936212
2	5999	9.2	11.016737845438
2	7783	9.6	10.954330903655
2	8764	10	10.97526807379
2	9445	10.4	11.01976815722
2	10428	10.8	11.086254457142
2	11060	11.2	10.936979487203
2	11951	11.6	10.97651792475
2	13528	12	11.105978489891
2	14968	12.4	10.917562291017
2	16397	12.8	11.020574924294
2	17556	13.2	11.06004074499
2	18966	13.6	11.02522899121
2	20283	14	11.024246260282
2	21906	14.4	10.979579345128
2	24217	14.8	11.089954622686
2	26262	15.2	11.076630496411
2	28490	15.6	10.965588878971
2	30641	16	11.005792679396
2	32571	16.4	10.969117120132
2	35494	16.8	11.002873440543
2	37561	17.2	11.019578192374
2	40278	17.6	11.105064254245
2	43035	18	11.057335524391
2	45509	18.4	11.055291593345
2	48681	18.8	10.918509828802
2	52187	19.2	11.086493628509
2	55540	19.6	11.103909406848
2	60085	20	11.097392341485
2	63465	20.4	10.988704907559
2	67954	20.8	10.955334797027
2	71871	21.2	11.072030417239
2	76613	21.6	11.028551766453
2	82472	22	11.060926557463
2	87351	22.4	10.973343733223
2	92459	22.8	10.992480072649
2	97271	23.2	11.075177610237
2	102340	23.6	10.994215522511
2	108163	24	10.963720531659
2	113581	24.4	10.91151409572
2	120318	24.8	11.003630163604
2	125966	25.2	11.024240856189
2	132438	25.6	10.948595432462
2	138083	26	10.945488110641
2	144262	26.4	11.08578802458
2	151165	26.8	11.062438551653
2	157262	27.2	11.083629592918
2	165408	27.6	10.930647768676
2	173820	28	10.937536290418
2	180489	28.4	11.001264389176
2	188863	28.8	11.086859352784
2	196999	29.2	11.104179998338
2	205431	29.6	10.925530403983
2	212919	30	11.077953905556
2	220697	30.4	10.910407549553
2	228795	30.8	10.991583866663
2	239339	31.2	10.957087604599
2	249530	31.6	10.931639807336
2	258534	32	11.018588248398
2	267378	32.4	10.945518652946
2	277217	32.8	11.104161951868
2	286502	33.2	11.007248053038
2	297294	33.6	10.934325501407
2	307273	34	11.109227929441
2	317194	34.4	11.04635329837
2	329525	34.8	11.011208433509
2	341566	35.2	10.987802698407
2	351747	35.6	10.935120016141
2	363428	36	11.086867626235
2	375173	36.4	11.00687233041
2	386801	36.8	10.935288634142
2	398456	37.2	10.917251801994
2	411241	37.6	11.085975964731
2	422856	38	10.944627679549
2	436558	38.4	11.030953351911
2	450508	38.8	11.045533292079
2	464228	39.2	10.991828490272
2	477942	39.6	11.00084413182
2	493241	40	10.920291939741
2	506135	40.4	10.964491277179
2	521971	40.8	10.999989098581
2	538377	41.2	10.937775398316
2	554115	41.6	10.93323627295
2	569288	42	10.945249367496
2	584394	42.4	11.065894340202
2	601204	42.8	10.925308891609
2	618139	43.2	10.975063437773
2	636780	43.6	11.108124963418
2	653797	44	10.985100505166
2	668960	44.4	10.953683654862
2	687791	44.8	11.015334760156
2	703107	45.2	11.022929306086
1	9	0.4	36.55
1	25	0.8	36.55
1	58	1.2	36.55
1	82	1.6	36.55
1	150	2	36.55
1	236	2.4	36.55
1	283	2.8	36.55
1	390	3.2	36.55
1	484	3.6	36.55
1	613	4	36.55
1	741	4.4	36.55
1	986	4.8	36.55
1	1176	5.2	36.55
1	1433	5.6	36.55
1	1692	6	36.55
1	1913	6.4	36.55
1	2157	6.8	36.55
1	2860	7.2	36.55
1	3710	7.6	36.55
1	4237	8	36.55
1	4672	8.4	36.55
1	5090	8.8	36.55
1	5999	9.2	36.55
1	7783	9.6	36.55
1	8764	10	36.55
1	9445	10.4	36.55
1	10428	10.8	36.55
1	11060	11.2	36.55
1	11951	11.6	36.55
1	13528	12	36.55
1	14968	12.4	36.55
1	16397	12.8	36.55
1	17556	13.2	36.55
1	18966	13.6	36.55
1	20283	14	36.55
1	21906	14.4	36.55
1	24217	14.8	36.55
1	26262	15.2	36.55
1	28490	15.6	36.55
1	30641	16	36.55
1	32571	16.4	36.55
1	35494	16.8	36.55
1	37561	17.2	36.55
1	40278	17.6	36.55
1	43035	18	36.55
1	45509	18.4	36.55
1	48681	18.8	36.55
1	52187	19.2	36.55
1	55540	19.6	36.55
1	60085	20	36.55
1	63465	20.4	36.55
1	67954	20.8	36.55
1	71871	21.2	36.55
1	76613	21.6	36.55
1	82472	22	36.55
1	87351	22.4	36.55
1	92459	22.8	36.55
1	97271	23.2	36.55
1	102340	23.6	36.55
1	108163	24	36.55
1	113581	24.4	36.55
1	120318	24.8	36.55
1	125966	25.2	36.55
1	132438	25.6	36.55
1	138083	26	36.55
1	144262	26.4	36.55
1	151165	26.8	36.55
1	157262	27.2	36.55
1	165408	27.6	36.55
1	173820	28	36.55
1	180489	28.4	36.55
1	188863	28.8	36.55
1	196999	29.2	36.55
1	205431	29.6	36.55
1	212919	30	36.55
1	220697	30.4	36.55
1	228795	30.8	36.55
1	239339	31.2	36.55
1	249530	31.6	36.55
1	258534	32	36.55
1	267378	32.4	36.55
1	277217	32.8	36.55
1	286502	33.2	36.55
1	297294	33.6	36.55
1	307273	34	36.55
1	317194	34.4	36.55
1	329525	34.8	36.55
1	341566	35.2	36.55
1	351747	35.6	36.55
1	363428	36	36.55
1	375173	36.4	36.55
1	386801	36.8	36.55
1	398456	37.2	36.55
1	411241	37.6	36.55
1	422856	38	36.55
1	436558	38.4	36.55
1	450508	38.8	36.55
1	464228	39.2	36.55
1	477942	39.6	36.55
1	493241	40	36.55
1	506135	40.4	36.55
1	521971	40.8	36.55
1	538377	41.2	36.55
1	554115	41.6	36.55
1	569288	42	36.55
1	584394	42.4	36.55
1	601204	42.8	36.55
1	618139	43.2	36.55
1	636780	43.6	36.55
1	653797	44	36.55
1	668960	44.4	36.55
1	687791	44.8	36.55
1	703107	45.2	36.55
0	9	0.4	32.128
0	25	0.8	32.128
0	58	1.2	40.833213412764
0	82	1.6	49.519047417352
0	150	2	58.222689699485
0	236	2.4	66.935500204187
0	283	2.8	75.667513284376
0	390	3.2	84.397319470315
0	484	3.6	93.187456134961
0	613	4	101.91091398127
0	741	4.4	110.63400559732
0	986	4.8	119.30069072034
0	1176	5.2	128.04148126082
0	1433	5.6	136.70279133701
0	1692	6	145.41946770411
0	1913	6.4	154.12639576917
0	2157	6.8	162.90874000432
0	2860	7.2	171.67355842781
0	3710	7.6	180.37572246537
0	4237	8	189.07773321302
0	4672	8.4	197.77339583192
0	5090	8.8	206.47623545431
0	5999	9.2	215.17195346779
0	7783	9.6	223.89720984138
0	8764	10	232.57303991707
0	9445	10.4	241.26545223151
0	10428	10.8	249.99310861203
0	11060	11.2	258.77342214209
0	11951	11.6	267.43550989595
0	13528	12	276.12891209236
0	14968	12.4	284.92484705635
0	16397	12.8	293.57155639083
0	17556	13.2	302.29985173088
0	18966	13.6	311.05940400091
0	20283	14	319.79138536195
0	21906	14.4	328.52258840009
0	24217	14.8	337.21841524143
0	26262	15.2	346.0016593026
0	28490	15.6	354.77435065575
0	30641	16	363.4590970479
0	32571	16.4	372.17568484998
0	35494	16.8	380.86322560913
0	37561	17.2	389.57750137404
0	40278	17.6	398.3050073024
0	43035	18	407.10021819176
0	45509	18.4	415.85762792708
0	48681	18.8	424.613418869
0	52187	19.2	433.26087865342
0	55540	19.6	442.0413816072
0	60085	20	450.83567785742
0	63465	20.4	459.62481259188
0	67954	20.8	468.32786687866
0	71871	21.2	477.00449203791
0	76613	21.6	485.77354012836
0	82472	22	494.50815312739
0	87351	22.4	503.2684069609
0	92459	22.8	511.95929519761
0	97271	23.2	520.66533941515
0	102340	23.6	529.43688008246
0	108163	24	538.14429877629
0	113581	24.4	546.82756543736
0	120318	24.8	555.46948460117
0	125966	25.2	564.18435969075
0	132438	25.6	572.91555844885
0	138083	26	581.58684603136
0	144262	26.4	590.25567261499
0	151165	26.8	599.03561673046
0	157262	27.2	607.79706806336
0	165408	27.6	616.57530270096
0	173820	28	625.23237573375
0	180489	28.4	633.89490447576
0	188863	28.8	642.60790587199
0	196999	29.2	651.38869847939
0	205431	29.6	660.18320903808
0	212919	30	668.83622911803
0	220697	30.4	677.60996861123
0	228795	30.8	686.25101139048
0	239339	31.2	694.95634581287
0	249530	31.6	703.63435919572
0	258534	32	712.29221792313
0	267378	32.4	721.01893981586
0	277217	32.8	729.68779058899
0	286502	33.2	738.48228685487
0	297294	33.6	747.20002731288
0	307273	34	755.86001310999
0	317194	34.4	764.65852163011
0	329525	34.8	773.40723344242
0	341566	35.2	782.12811052176
0	351747	35.6	790.83045025889
0	363428	36	799.49106531168
0	375173	36.4	808.27186447166
0	386801	36.8	816.98930735734
0	398456	37.2	825.65005595558
0	411241	37.6	834.29651938276
0	422856	38	843.07661234683
0	436558	38.4	851.74475746903
0	450508	38.8	860.48127252374
0	464228	39.2	869.22933489107
0	477942	39.6	877.93486305537
0	493241	40	886.64753160777
0	506135	40.4	895.29640282404
0	521971	40.8	903.98027991557
0	538377	41.2	912.69227128164
0	554115	41.6	921.35498939711
0	569288	42	930.01411252529
0	584394	42.4	938.68275002434
0	601204	42.8	947.44693834178
0	618139	43.2	956.09978298394
0	636780	43.6	964.79203322665
0	653797	44	973.58966819768
0	668960	44.4	982.28986779777
0	687791	44.8	990.96518525242
0	703107	45.2	999.68933038246
vector 227 SlicingScenario.node[45].veinsmobility speed ETV
vector 228 SlicingScenario.node[45].veinsmobility acceleration ETV
vector 229 SlicingScenario.node[45].veinsmobility co2emission ETV
vector 230 SlicingScenario.node[46].veinsmobility posx ETV
vector 231 SlicingScenario.node[46].veinsmobility posy ETV
vector 232 SlicingScenario.node[46].veinsmobility speed ETV
9	150	2	2.6587517034267
9	236	2.4	2.9389683007288
9	283	2.8	3.3579382337849
9	390	3.2	2.7049550093978
9	484	3.6	2.9404128024488
9	613	4	3.2552947212538
9	741	4.4	3.9346466584378
9	986	4.8	3.0895809251422
9	1176	5.2	3.0925363962198
9	1433	5.6	3.2576290443784
9	1692	6	4.1734879622958
9	1913	6.4	2.4909952433907
9	2157	6.8	2.108414616223
9	2860	7.2	2.1945919954046
9	3710	7.6	0.973
9	4237	8	1.4774282665806
9	4672	8.4	2.1918979760389
9	5090	8.8	2.0206951311998
9	5999	9.2	1.3376278858112
9	7783	9.6	2.3602104617213
9	8764	10	1.5452376993524
9	9445	10.4	0.973
9	10428	10.8	2.1368694365222
9	11060	11.2	2.5077234507893
9	11951	11.6	0.973
9	13528	12	2.9442429003441
9	14968	12.4	1.6566996800981
9	16397	12.8	1.1981033742437
9	17556	13.2	2.1154146470073
9	18966	13.6	1.727446010367
9	20283	14	1.4161353076326
9	21906	14.4	2.509331073774
9	24217	14.8	1.9851507022305
9	26262	15.2	1.8186778144174
9	28490	15.6	1.8697447788668
9	30641	16	0.973
9	32571	16.4	1.8265268655391
9	35494	16.8	1.2313389432414
9	37561	17.2	2.4861679227923
9	40278	17.6	1.2786118833157
9	43035	18	2.7284092621654
9	45509	18.4	1.3827196312608
9	48681	18.8	1.6411063710077
9	52187	19.2	1.2730541788883
9	55540	19.6	1.9199277456866
9	60085	20	2.7746487334535
9	63465	20.4	1.3389715997666
9	67954	20.8	2.2072975722204
9	71871	21.2	1.208244386548
9	76613	21.6	1.3078550628629
9	82472	22	2.2212414056972
9	87351	22.4	1.7522590224431
9	92459	22.8	2.3511478321685
9	97271	23.2	0.973
9	102340	23.6	1.8986013499593
9	108163	24	2.1736150087502
9	113581	24.4	0.973
9	120318	24.8	2.3437356301431
9	125966	25.2	1.4246333711579
9	132438	25.6	1.9762550638652
9	138083	26	1.3195011314138
9	144262	26.4	1.3664960546545
9	151165	26.8	2.1868032720432
9	157262	27.2	1.4948851915786
9	165408	27.6	2.8077532341121
9	173820	28	1.8325191613862
9	180489	28.4	1.7775068648607
9	188863	28.8	1.8558426731776
9	196999	29.2	0.973
9	205431	29.6	2.093438235266
9	212919	30	2.2221766872779
9	220697	30.4	2.0396494633701
9	228795	30.8	0.973
9	239339	31.2	2.382833565339
9	249530	31.6	0.973
9	258534	32	1.4472747158417
9	267378	32.4	1.6134701134628
9	277217	32.8	2.7320047132212
9	286502	33.2	1.941234628398
9	297294	33.6	0.973
9	307273	34	1.4820354816769
9	317194	34.4	2.1942136087885
9	329525	34.8	2.2622782456794
9	341566	35.2	0.973
9	351747	35.6	2.701168400811
9	363428	36	0.973
9	375173	36.4	2.4614473044748
9	386801	36.8	1.3907552337803
9	398456	37.2	1.4097082642959
9	411241	37.6	1.4004728863704
9	422856	38	2.3418279110812
9	436558	38.4	1.4121903684849
9	450508	38.8	2.9170521653823
9	464228	39.2	0.973
9	477942	39.6	2.9468320447114
9	493241	40	1.6502598759712
9	506135	40.4	1.313790332569
9	521971	40.8	1.6340112798314
9	538377	41.2	1.6296099792709
9	554115	41.6	1.7355022872842
9	569288	42	1.5940770591667
9	584394	42.4	2.1518143447417
9	601204	42.8	2.137303954794
9	618139	43.2	0.973
9	636780	43.6	3.2360866469828
9	653797	44	1.3404296539873
9	668960	44.4	1.3043965957942
9	687791	44.8	2.3016139738205
9	703107	45.2	2.0918508707912
9	720795	45.6	0.973
9	738351	46	3.0579327144889
9	753876	46.4	0.973
9	773809	46.8	1.5057526723426
8	150	2	0.57637413137127
8	236	2.4	0.68821815180127
8	283	2.8	0.85123269737232
8	390	3.2	0.51816861797124
8	484	3.6	0.60413748328574
8	613	4	0.7159777181223
8	741	4.4	0.96448197064456
8	986	4.8	0.58369007857982
8	1176	5.2	0.56495637446642
8	1433	5.6	0.60973541217391
8	1692	6	0.92832335724961
8	1913	6.4	0.27755160634742
8	2157	6.8	0.13025886147661
8	2860	7.2	0.15987213657131
8	3710	7.6	-0.26319294282389
8	4237	8	-0.10608686789352
8	4672	8.4	0.16261651014148
8	5090	8.8	0.09637036904095
8	5999	9.2	-0.15989337691034
8	7783	9.6	0.22297205669184
8	8764	10	-0.082546879562657
8	9445	10.4	-0.29747928695148
8	10428	10.8	0.14317328893391
8	11060	11.2	0.27750121501906
8	11951	11.6	-0.48552603589515
8	13528	12	0.44253361763825
8	14968	12.4	-0.040956868117363
8	16397	12.8	-0.21260673736784
8	17556	13.2	0.13307522747678
8	18966	13.6	-0.013228738684301
8	20283	14	-0.12982181506231
8	21906	14.4	0.2787274736911
8	24217	14.8	0.080588062817157
8	26262	15.2	0.01800056785632
8	28490	15.6	0.036615934805013
8	30641	16	-0.31658392797348
8	32571	16.4	0.024301056387994
8	35494	16.8	-0.19955631650081
8	37561	17.2	0.27190384355416
8	40278	17.6	-0.18207739060744
8	43035	18	0.35869658109732
8	45509	18.4	-0.14411555824336
8	48681	18.8	-0.046374586992894
8	52187	19.2	-0.18409627820182
8	55540	19.6	0.060534007659214
8	60085	20	0.37444781058002
8	63465	20.4	-0.16086466237903
8	67954	20.8	0.16246104962192
8	71871	21.2	-0.20976446520069
8	76613	21.6	-0.17122699753384
8	82472	22	0.17153586726636
8	87351	22.4	-0.004933635820632
8	92459	22.8	0.21616357285529
8	97271	23.2	-0.31794103374704
8	102340	23.6	0.050882143783384
8	108163	24	0.15189283993095
8	113581	24.4	-0.29469463154981
8	120318	24.8	0.2172670245268
8	125966	25.2	-0.1274782432077
8	132438	25.6	0.07976331561804
8	138083	26	-0.16666436492822
8	144262	26.4	-0.14782549629374
8	151165	26.8	0.16187515921702
8	157262	27.2	-0.099433020572182
8	165408	27.6	0.38943598675542
8	173820	28	0.023476204718462
8	180489	28.4	0.0028324022216353
8	188863	28.8	0.031747603926102
8	196999	29.2	-0.34571188525297
8	205431	29.6	0.12435535364784
8	212919	30	0.16976291547135
8	220697	30.4	0.099752040923788
8	228795	30.8	-0.28425971465499
8	239339	31.2	0.22906652768456
8	249530	31.6	-0.22719777497579
8	258534	32	-0.11830197639465
8	267378	32.4	-0.05475289772447
8	277217	32.8	0.3607431236366
8	286502	33.2	0.063450049428249
8	297294	33.6	-0.31274992547164
8	307273	34	-0.10471975899683
8	317194	34.4	0.16266588560853
8	329525	34.8	0.18482307437807
8	341566	35.2	-0.36349744407925
8	351747	35.6	0.34969372535124
8	363428	36	-0.32315104392243
8	375173	36.4	0.26113421162942
8	386801	36.8	-0.14032416616101
8	398456	37.2	-0.1321715397775
8	411241	37.6	-0.13468118889547
8	422856	38	0.21996374800772
8	436558	38.4	-0.13088471311271
8	450508	38.8	0.42929224783215
8	464228	39.2	-0.39373993058689
8	477942	39.6	0.43916153663304
8	493241	40	-0.044986729277294
8	506135	40.4	-0.16990913369626
8	521971	40.8	-0.048769032667488
8	538377	41.2	-0.04990517641847
8	554115	41.6	-0.0097557986769736
8	569288	42	-0.062611180566745
8	584394	42.4	0.14620757569906
8	601204	42.8	0.13833098767958
8	618139	43.2	-0.47726018200462
8	636780	43.6	0.5482533531541
8	653797	44	-0.16003392784072
8	668960	44.4	-0.1725528573424
8	687791	44.8	0.20115552526332
8	703107	45.2	0.12028074257572
8	720795	45.6	-0.41686271259096
8	738351	46	0.4800477825338
8	753876	46.4	-0.38708141050301
8	773809	46.8	-0.095427248510536
7	82	1.6	7.7903570285312
7	150	2	8.0209066810798
7	236	2.4	8.2961939418003
7	283	2.8	8.6366870207492
7	390	3.2	8.8439544679377
7	484	3.6	9.085609461252
7	613	4	9.3720005485009
7	741	4.4	9.7577933367587
7	986	4.8	9.9912693681907
7	1176	5.2	10.217251917977
7	1433	5.6	10.461146082847
7	1692	6	10.832475425747
7	1913	6.4	10.943496068286
7	2157	6.8	10.995599612876
7	2860	7.2	11.059548467505
7	3710	7.6	10.954271290375
7	4237	8	10.911836543218
7	4672	8.4	10.976883147274
7	5090	8.8	11.015431294891
7	5999	9.2	10.951473944127
7	7783	9.6	11.040662766803
7	8764	10	11.007644014978
7	9445	10.4	10.888652300198
7	10428	10.8	10.945921615771
7	11060	11.2	11.056922101779
7	11951	11.6	10.862711687421
7	13528	12	11.039725134476
7	14968	12.4	11.023342387229
7	16397	12.8	10.938299692282
7	17556	13.2	10.991529783273
7	18966	13.6	10.986238287799
7	20283	14	10.934309561774
7	21906	14.4	11.045800551251
7	24217	14.8	11.078035776377
7	26262	15.2	11.08523600352
7	28490	15.6	11.099882377442
7	30641	16	10.973248806253
7	32571	16.4	10.982969228808
7	35494	16.8	10.903146702207
7	37561	17.2	11.011908239629
7	40278	17.6	10.939077283386
7	43035	18	11.082555915825
7	45509	18.4	11.024909692528
7	48681	18.8	11.006359857731
7	52187	19.2	10.93272134645
7	55540	19.6	10.956934949514
7	60085	20	11.106714073746
7	63465	20.4	11.042368208794
7	67954	20.8	11.107352628643
7	71871	21.2	11.023446842562
7	76613	21.6	10.954956043549
7	82472	22	11.023570390455
7	87351	22.4	11.021596936127
7	92459	22.8	11.108062365269
7	97271	23.2	10.98088595177
7	102340	23.6	11.001238809284
7	108163	24	11.061995945256
7	113581	24.4	10.944118092636
7	120318	24.8	11.031024902447
7	125966	25.2	10.980033605164
7	132438	25.6	11.011938931411
7	138083	26	10.94527318544
7	144262	26.4	10.886142986922
7	151165	26.8	10.950893050609
7	157262	27.2	10.91111984238
7	165408	27.6	11.066894237082
7	173820	28	11.07628471897
7	180489	28.4	11.077417679858
7	188863	28.8	11.090116721429
7	196999	29.2	10.951831967328
7	205431	29.6	11.001574108787
7	212919	30	11.069479274975
7	220697	30.4	11.109380091345
7	228795	30.8	10.995676205483
7	239339	31.2	11.087302816557
7	249530	31.6	10.996423706566
7	258534	32	10.949102916009
7	267378	32.4	10.927201756919
7	277217	32.8	11.071499006373
7	286502	33.2	11.096879026145
7	297294	33.6	10.971779055956
7	307273	34	10.929891152357
7	317194	34.4	10.994957506601
7	329525	34.8	11.068886736352
7	341566	35.2	10.92348775872
7	351747	35.6	11.063365248861
7	363428	36	10.934104831292
7	375173	36.4	11.038558515944
7	386801	36.8	10.982428849479
7	398456	37.2	10.929560233568
7	411241	37.6	10.87568775801
7	422856	38	10.963673257213
7	436558	38.4	10.911319371968
7	450508	38.8	11.083036271101
7	464228	39.2	10.925540298866
7	477942	39.6	11.101204913519
7	493241	40	11.083210221808
7	506135	40.4	11.01524656833
7	521971	40.8	10.995738955263
7	538377	41.2	10.975776884696
7	554115	41.6	10.971874565225
7	569288	42	10.946830092998
7	584394	42.4	11.005313123278
7	601204	42.8	11.060645518349
7	618139	43.2	10.869741445548
7	636780	43.6	11.089042786809
7	653797	44	11.025029215673
7	668960	44.4	10.956008072736
7	687791	44.8	11.036470282841
7	703107	45.2	11.084582579872
7	720795	45.6	10.917837494835
7	738351	46	11.109856607849
7	753876	46.4	10.955024043648
7	773809	46.8	10.916853144243
4	58	1.2	36.55
4	82	1.6	36.55
4	150	2	36.55
4	236	2.4	36.55
4	283	2.8	36.55
4	390	3.2	36.55
4	484	3.6	36.55
4	613	4	36.55
4	741	4.4	36.55
4	986	4.8	36.55
4	1176	5.2	36.55
4	1433	5.6	36.55
4	1692	6	36.55
4	1913	6.4	36.55
4	2157	6.8	36.55
4	2860	7.2	36.55
4	3710	7.6	36.55
4	4237	8	36.55
4	4672	8.4	36.55
4	5090	8.8	36.55
4	5999	9.2	36.55
4	7783	9.6	36.55
4	8764	10	36.55
4	9445	10.4	36.55
4	10428	10.8	36.55
4	11060	11.2	36.55
4	11951	11.6	36.55
4	13528	12	36.55
4	14968	12.4	36.55
4	16397	12.8	36.55
4	17556	13.2	36.55
4	18966	13.6	36.55
4	20283	14	36.55
4	21906	14.4	36.55
4	24217	14.8	36.55
4	26262	15.2	36.55
4	28490	15.6	36.55
4	30641	16	36.55
4	32571	16.4	36.55
4	35494	16.8	36.55
4	37561	17.2	36.55
4	40278	17.6	36.55
4	43035	18	36.55
4	45509	18.4	36.55
4	48681	18.8	36.55
4	52187	19.2	36.55
4	55540	19.6	36.55
4	60085	20	36.55
4	63465	20.4	36.55
4	67954	20.8	36.55
4	71871	21.2	36.55
4	76613	21.6	36.55
4	82472	22	36.55
4	87351	22.4	36.55
4	92459	22.8	36.55
4	97271	23.2	36.55
4	102340	23.6	36.55
4	108163	24	36.55
4	113581	24.4	36.55
4	120318	24.8	36.55
4	125966	25.2	36.55
4	132438	25.6	36.55
4	138083	26	36.55
4	144262	26.4	36.55
4	151165	26.8	36.55
4	157262	27.2	36.55
4	165408	27.6	36.55
4	173820	28	36.55
4	180489	28.4	36.55
4	188863	28.8	36.55
4	196999	29.2	36.55
4	205431	29.6	36.55
4	212919	30	36.55
4	220697	30.4	36.55
4	228795	30.8	36.55
4	239339	31.2	36.55
4	249530	31.6	36.55
4	258534	32	36.55
4	267378	32.4	36.55
4	277217	32.8	36.55
4	286502	33.2	36.55
4	297294	33.6	36.55
4	307273	34	36.55
4	317194	34.4	36.55
4	329525	34.8	36.55
4	341566	35.2	36.55
4	351747	35.6	36.55
4	363428	36	36.55
4	375173	36.4	36.55
4	386801	36.8	36.55
4	398456	37.2	36.55
4	411241	37.6	36.55
4	422856	38	36.55
4	436558	38.4	36.55
4	450508	38.8	36.55
4	464228	39.2	36.55
4	477942	39.6	36.55
4	493241	40	36.55
4	506135	40.4	36.55
4	521971	40.8	36.55
4	538377	41.2	36.55
4	554115	41.6	36.55
4	569288	42	36.55
4	584394	42.4	36.55
4	601204	42.8	36.55
4	618139	43.2	36.55
4	636780	43.6	36.55
4	653797	44	36.55
4	668960	44.4	36.55
4	687791	44.8	36.55
4	703107	45.2	36.55
4	720795	45.6	36.55
4	738351	46	36.55
4	753876	46.4	36.55
4	773809	46.8	36.55
3	58	1.2	32.128
3	82	1.6	32.128
3	150	2	38.297962766597
3	236	2.4	44.650520858012
3	283	2.8	51.221106459918
3	390	3.2	58.061362580351
3	484	3.6	65.065774518958
3	613	4	72.261577212269
3	741	4.4	79.684201646682
3	986	4.8	87.412373969395
3	1176	5.2	95.325459309002
3	1433	5.6	103.41752282804
3	1692	6	111.70275052565
3	1913	6.4	120.28207106285
3	2157	6.8	128.94931994893
3	2860	7.2	137.65783484233
3	3710	7.6	146.41699722859
3	4237	8	155.09278009057
3	4672	8.4	163.7349546328
3	5090	8.8	172.42864608544
3	5999	9.2	181.15286767099
3	7783	9.6	189.82643503474
3	8764	10	198.57063994605
3	9445	10.4	207.28869400591
3	10428	10.8	215.91250662767
3	11060	11.2	224.58167654736
3	11951	11.6	233.33875885197
3	13528	12	241.9420265084
3	14968	12.4	250.68548881491
3	16397	12.8	259.41597598559
3	17556	13.2	268.07910934188
3	18966	13.6	276.78440093023
3	20283	14	285.48550165417
3	21906	14.4	294.1454748271
3	24217	14.8	302.89374886369
3	26262	15.2	311.66755319858
3	28490	15.6	320.44706011336
3	30641	16	329.2381669563
3	32571	16.4	337.92898001085
3	35494	16.8	346.62749164007
3	37561	17.2	355.26278382821
3	40278	17.6	363.984215154
3	43035	18	372.64796436244
3	45509	18.4	381.42534864778
3	48681	18.8	390.15707712426
3	52187	19.2	398.87411413158
3	55540	19.6	407.53282943797
3	60085	20	416.21072191798
3	63465	20.4	425.00723946439
3	67954	20.8	433.75279508576
3	71871	21.2	442.54981836764
3	76613	21.6	451.28038826695
3	82472	22	459.95671345344
3	87351	22.4	468.68738120268
3	92459	22.8	477.41648597609
3	97271	23.2	486.21407136939
3	102340	23.6	494.91093304319
3	108163	24	503.62391418014
3	113581	24.4	512.38501496878
3	120318	24.8	521.05275649815
3	125966	25.2	529.78932822089
3	132438	25.6	538.48551483618
3	138083	26	547.20697046986
3	144262	26.4	555.87562683273
3	151165	26.8	564.49745207837
3	157262	27.2	573.17055937445
3	165408	27.6	581.81216628962
3	173820	28	590.57714652539
3	180489	28.4	599.34956402281
3	188863	28.8	608.12287882526
3	196999	29.2	616.90625126863
3	205431	29.6	625.58010218675
3	212919	30	634.29334888091
3	220697	30.4	643.06037646669
3	228795	30.8	651.85900549904
3	239339	31.2	660.56758105378
3	249530	31.6	669.34872488449
3	258534	32	678.05789246009
3	267378	32.4	686.72958196957
3	277217	32.8	695.38392576105
3	286502	33.2	704.1525529741
3	297294	33.6	712.94128116281
3	307273	34	721.63093017512
3	317194	34.4	730.28740396779
3	329525	34.8	738.99541031302
3	341566	35.2	747.76196860821
3	351747	35.6	756.41337091312
3	363428	36	765.17555619021
3	375173	36.4	773.8353672166
3	386801	36.8	782.57790556122
3	398456	37.2	791.27598921001
3	411241	37.6	799.932200915
3	422856	38	808.54574561934
3	436558	38.4	817.22897483906
3	450508	38.8	825.87073978165
3	464228	39.2	834.64850450837
3	477942	39.6	843.30153242507
3	493241	40	852.09368671657
3	506135	40.4	860.87158921225
3	521971	40.8	869.59566449436
3	538377	41.2	878.30428974693
3	554115	41.6	886.99710503961
3	569288	42	895.68682969527
3	584394	42.4	904.35671912892
3	601204	42.8	913.07292712256
3	618139	43.2	921.83295837309
3	636780	43.6	930.44179359797
3	653797	44	939.22431548512
3	668960	44.4	947.95613862393
3	687791	44.8	956.63329701754
3	703107	45.2	965.37418148155
3	720795	45.6	974.15317088481
3	738351	46	982.80009818072
3	753876	46.4	991.59910461413
3	773809	46.8	1000.2754836567
vector 233 SlicingScenario.node[47].veinsmobility posx ETV
vector 234 SlicingScenario.node[47].veinsmobility posy ETV
vector 235 SlicingScenario.node[46].veinsmobility acceleration ETV
vector 236 SlicingScenario.node[46].veinsmobility co2emission ETV
16	390	3.2	0.973
16	484	3.6	2.4421575406324
16	613	4	1.5710690466791
16	741	4.4	1.2352334567756
16	986	4.8	2.1290620355796
16	1176	5.2	1.5882909644223
16	1433	5.6	1.7294775538039
16	1692	6	1.8668876883745
16	1913	6.4	1.7100342815328
16	2157	6.8	1.7892057718447
16	2860	7.2	1.9204054439327
16	3710	7.6	1.6765694824685
16	4237	8	2.6028967305589
16	4672	8.4	1.6787443815427
16	5090	8.8	0.973
16	5999	9.2	1.7369932565281
16	7783	9.6	1.7329338490733
16	8764	10	2.6573473057998
16	9445	10.4	0.973
16	10428	10.8	2.2908685371827
16	11060	11.2	1.6402058246472
16	11951	11.6	0.973
16	13528	12	2.7651693707379
16	14968	12.4	1.6525238206651
16	16397	12.8	1.8315265826523
16	17556	13.2	1.5150570893574
16	18966	13.6	0.973
16	20283	14	2.6548184355474
16	21906	14.4	1.3865949113521
16	24217	14.8	1.4535039146907
16	26262	15.2	2.8003268957508
16	28490	15.6	0.973
16	30641	16	1.7176371365348
16	32571	16.4	2.2786842539119
16	35494	16.8	1.8722694006745
16	37561	17.2	0.973
16	40278	17.6	2.1950176247572
16	43035	18	1.9797587886024
16	45509	18.4	2.3830446234515
16	48681	18.8	1.4301111797576
16	52187	19.2	0.973
16	55540	19.6	2.3679803572834
16	60085	20	1.9216657660735
16	63465	20.4	0.973
16	67954	20.8	1.9340645120916
16	71871	21.2	2.715408241864
16	76613	21.6	1.5060004218563
16	82472	22	2.0966691879525
16	87351	22.4	1.236027551951
16	92459	22.8	1.2850134751092
16	97271	23.2	2.1997002264296
16	102340	23.6	1.9338750116539
16	108163	24	1.3554013874713
16	113581	24.4	1.425125923547
16	120318	24.8	1.7475759241652
16	125966	25.2	2.7369791862861
16	132438	25.6	0.973
16	138083	26	2.1696223351715
16	144262	26.4	1.5625817259668
16	151165	26.8	2.0055920355229
16	157262	27.2	1.4471900380665
16	165408	27.6	2.8341631214497
16	173820	28	0.973
16	180489	28.4	1.760638906579
16	188863	28.8	2.9344930032725
16	196999	29.2	0.973
16	205431	29.6	2.1542812513986
16	212919	30	2.1921784164941
16	220697	30.4	1.1794802413281
16	228795	30.8	2.2134410594444
16	239339	31.2	1.3403519472812
16	249530	31.6	2.5918153800566
16	258534	32	1.6870661231631
16	267378	32.4	0.973
16	277217	32.8	1.6764572088024
16	286502	33.2	1.9838066637486
16	297294	33.6	1.9190592148591
16	307273	34	2.204486540456
16	317194	34.4	0.973
16	329525	34.8	2.2911008329881
16	341566	35.2	2.3470759300246
16	351747	35.6	1.4418299242132
16	363428	36	0.973
16	375173	36.4	1.9109966278886
16	386801	36.8	2.4798985941357
16	398456	37.2	1.8936938411319
16	411241	37.6	0.973
16	422856	38	2.4280687748842
16	436558	38.4	0.973
16	450508	38.8	2.388446285465
16	464228	39.2	2.3684701329971
16	477942	39.6	1.8185871528496
16	493241	40	0.973
16	506135	40.4	2.7594386187275
16	521971	40.8	0.973
16	538377	41.2	1.6966646923179
16	554115	41.6	2.9159342260475
16	569288	42	1.515479049948
16	584394	42.4	0.973
16	601204	42.8	2.2231584054792
16	618139	43.2	2.2983905286863
16	636780	43.6	1.2998681952569
16	653797	44	2.2297579123144
16	668960	44.4	0.973
16	687791	44.8	2.6931547392491
16	703107	45.2	0.973
16	720795	45.6	2.1356475727504
16	738351	46	2.4723567687787
16	753876	46.4	0.973
16	773809	46.8	2.0310443630066
16	792015	47.2	1.9623076015467
15	390	3.2	-0.25369564676657
15	484	3.6	0.25416574021801
15	613	4	-0.072726700105701
15	741	4.4	-0.19835085584782
15	986	4.8	0.13871237833519
15	1176	5.2	-0.064992440165952
15	1433	5.6	-0.011376997805201
15	1692	6	0.040139050455767
15	1913	6.4	-0.01899148442317
15	2157	6.8	0.010848721256478
15	2860	7.2	0.059641338535585
15	3710	7.6	-0.032092398498205
15	4237	8	0.31079741567373
15	4672	8.4	-0.034350415924562
15	5090	8.8	-0.25267387740314
15	5999	9.2	-0.0094171344535443
15	7783	9.6	-0.010822000098414
15	8764	10	0.33059034019243
15	9445	10.4	-0.2480263649486
15	10428	10.8	0.19471390359104
15	11060	11.2	-0.048312784289006
15	11951	11.6	-0.35623703233432
15	13528	12	0.37305241718423
15	14968	12.4	-0.043408302590251
15	16397	12.8	0.023463168996387
15	17556	13.2	-0.094369255588389
15	18966	13.6	-0.27213174896315
15	20283	14	0.33300301490817
15	21906	14.4	-0.14212382293772
15	24217	14.8	-0.11593436799012
15	26262	15.2	0.38431730365847
15	28490	15.6	-0.32993469398935
15	30641	16	-0.016280894633383
15	32571	16.4	0.19231944158673
15	35494	16.8	0.03904457227327
15	37561	17.2	-0.33855492726434
15	40278	17.6	0.16335723467637
15	43035	18	0.080821647890841
15	45509	18.4	0.22797963651829
15	48681	18.8	-0.12694314750843
15	52187	19.2	-0.27681930980179
15	55540	19.6	0.22598376497626
15	60085	20	0.057391978916712
15	63465	20.4	-0.36833317903802
15	67954	20.8	0.066472528735173
15	71871	21.2	0.35382490186021
15	76613	21.6	-0.098122441093436
15	82472	22	0.12177106156014
15	87351	22.4	-0.19916576915421
15	92459	22.8	-0.1796703726286
15	97271	23.2	0.16422008455265
15	102340	23.6	0.063079733168703
15	108163	24	-0.15347318735439
15	113581	24.4	-0.12612620939035
15	120318	24.8	-0.003554123337377
15	125966	25.2	0.36311929463409
15	132438	25.6	-0.37075604242273
15	138083	26	0.15419855143409
15	144262	26.4	-0.074553683632983
15	151165	26.8	0.091920468024909
15	157262	27.2	-0.11808193009347
15	165408	27.6	0.39742747962009
15	173820	28	-0.41121437423862
15	180489	28.4	0.0010004744399339
15	188863	28.8	0.43427452375181
15	196999	29.2	-0.44523873261642
15	205431	29.6	0.14798224670812
15	212919	30	0.15939862735104
15	220697	30.4	-0.21992750256322
15	228795	30.8	0.1683329413645
15	239339	31.2	-0.15909431187902
15	249530	31.6	0.30720126163215
15	258534	32	-0.031010632170365
15	267378	32.4	-0.23508074949496
15	277217	32.8	-0.032015295699237
15	286502	33.2	0.082969232113101
15	297294	33.6	0.057717257994225
15	307273	34	0.16217556362972
15	317194	34.4	-0.41956186201424
15	329525	34.8	0.1988743012771
15	341566	35.2	0.21562540065497
15	351747	35.6	-0.1221592661459
15	363428	36	-0.29022885195445
15	375173	36.4	0.057527413824574
15	386801	36.8	0.26725113124121
15	398456	37.2	0.046541616553442
15	411241	37.6	-0.31054249696899
15	422856	38	0.24813265958801
15	436558	38.4	-0.3392140098149
15	450508	38.8	0.23541272303555
15	464228	39.2	0.22330465330743
15	477942	39.6	0.017428152030332
15	493241	40	-0.47865761397406
15	506135	40.4	0.37182154494803
15	521971	40.8	-0.33754639455583
15	538377	41.2	-0.022809746675194
15	554115	41.6	0.42863747058436
15	569288	42	-0.09467660705559
15	584394	42.4	-0.31798474467359
15	601204	42.8	0.17377939878497
15	618139	43.2	0.19829635205678
15	636780	43.6	-0.17492916318588
15	653797	44	0.17261416791007
15	668960	44.4	-0.29214741103351
15	687791	44.8	0.34500987420325
15	703107	45.2	-0.36656755756121
15	720795	45.6	0.14034669613466
15	738351	46	0.26162974885665
15	753876	46.4	-0.25813720689621
15	773809	46.8	0.099248026963323
15	792015	47.2	0.072333351825367
12	283	2.8	11.033123658355
12	390	3.2	10.931645399649
12	484	3.6	11.033311695736
12	613	4	11.004221015694
12	741	4.4	10.924880673354
12	986	4.8	10.980365624689
12	1176	5.2	10.954368648622
12	1433	5.6	10.9498178495
12	1692	6	10.965873469682
12	1913	6.4	10.958276875913
12	2157	6.8	10.962616364416
12	2860	7.2	10.98647289983
12	3710	7.6	10.973635940431
12	4237	8	11.0979549067
12	4672	8.4	11.08421474033
12	5090	8.8	10.983145189369
12	5999	9.2	10.979378335588
12	7783	9.6	10.975049535548
12	8764	10	11.107285671625
12	9445	10.4	11.008075125646
12	10428	10.8	11.085960687082
12	11060	11.2	11.066635573367
12	11951	11.6	10.924140760433
12	13528	12	11.073361727307
12	14968	12.4	11.055998406271
12	16397	12.8	11.065383673869
12	17556	13.2	11.027635971634
12	18966	13.6	10.918783272048
12	20283	14	11.051984478012
12	21906	14.4	10.995134948837
12	24217	14.8	10.948761201641
12	26262	15.2	11.102488123104
12	28490	15.6	10.970514245508
12	30641	16	10.964001887655
12	32571	16.4	11.04092966429
12	35494	16.8	11.056547493199
12	37561	17.2	10.921125522293
12	40278	17.6	10.986468416164
12	43035	18	11.01879707532
12	45509	18.4	11.109988929927
12	48681	18.8	11.059211670924
12	52187	19.2	10.948483947003
12	55540	19.6	11.038877452994
12	60085	20	11.06183424456
12	63465	20.4	10.914500972945
12	67954	20.8	10.941089984439
12	71871	21.2	11.082619945183
12	76613	21.6	11.043370968746
12	82472	22	11.09207939337
12	87351	22.4	11.012413085708
12	92459	22.8	10.940544936657
12	97271	23.2	11.006232970478
12	102340	23.6	11.031464863745
12	108163	24	10.970075588804
12	113581	24.4	10.919625105048
12	120318	24.8	10.918203455713
12	125966	25.2	11.063451173566
12	132438	25.6	10.915148756597
12	138083	26	10.976828177171
12	144262	26.4	10.947006703718
12	151165	26.8	10.983774890928
12	157262	27.2	10.93654211889
12	165408	27.6	11.095513110738
12	173820	28	10.931027361043
12	180489	28.4	10.931427550819
12	188863	28.8	11.105137360319
12	196999	29.2	10.927041867273
12	205431	29.6	10.986234765956
12	212919	30	11.049994216897
12	220697	30.4	10.962023215871
12	228795	30.8	11.029356392417
12	239339	31.2	10.965718667665
12	249530	31.6	11.088599172318
12	258534	32	11.07619491945
12	267378	32.4	10.982162619652
12	277217	32.8	10.969356501373
12	286502	33.2	11.002544194218
12	297294	33.6	11.025631097415
12	307273	34	11.090501322867
12	317194	34.4	10.922676578062
12	329525	34.8	11.002226298572
12	341566	35.2	11.088476458834
12	351747	35.6	11.039612752376
12	363428	36	10.923521211594
12	375173	36.4	10.946532177124
12	386801	36.8	11.053432629621
12	398456	37.2	11.072049276242
12	411241	37.6	10.947832277454
12	422856	38	11.04708534129
12	436558	38.4	10.911399737364
12	450508	38.8	11.005564826578
12	464228	39.2	11.094886687901
12	477942	39.6	11.101857948713
12	493241	40	10.910394903123
12	506135	40.4	11.059123521103
12	521971	40.8	10.92410496328
12	538377	41.2	10.91498106461
12	554115	41.6	11.086436052844
12	569288	42	11.048565410022
12	584394	42.4	10.921371512152
12	601204	42.8	10.990883271666
12	618139	43.2	11.070201812489
12	636780	43.6	11.000230147215
12	653797	44	11.069275814379
12	668960	44.4	10.952416849965
12	687791	44.8	11.090420799647
12	703107	45.2	10.943793776622
12	720795	45.6	10.999932455076
12	738351	46	11.104584354619
12	753876	46.4	11.00132947186
12	773809	46.8	11.041028682645
12	792015	47.2	11.069962023376
11	236	2.4	33.25
11	283	2.8	33.25
11	390	3.2	33.25
11	484	3.6	33.25
11	613	4	33.25
11	741	4.4	33.25
11	986	4.8	33.25
11	1176	5.2	33.25
11	1433	5.6	33.25
11	1692	6	33.25
11	1913	6.4	33.25
11	2157	6.8	33.25
11	2860	7.2	33.25
11	3710	7.6	33.25
11	4237	8	33.25
11	4672	8.4	33.25
11	5090	8.8	33.25
11	5999	9.2	33.25
11	7783	9.6	33.25
11	8764	10	33.25
11	9445	10.4	33.25
11	10428	10.8	33.25
11	11060	11.2	33.25
11	11951	11.6	33.25
11	13528	12	33.25
11	14968	12.4	33.25
11	16397	12.8	33.25
11	17556	13.2	33.25
11	18966	13.6	33.25
11	20283	14	33.25
11	21906	14.4	33.25
11	24217	14.8	33.25
11	26262	15.2	33.25
11	28490	15.6	33.25
11	30641	16	33.25
11	32571	16.4	33.25
11	35494	16.8	33.25
11	37561	17.2	33.25
11	40278	17.6	33.25
11	43035	18	33.25
11	45509	18.4	33.25
11	48681	18.8	33.25
11	52187	19.2	33.25
11	55540	19.6	33.25
11	60085	20	33.25
11	63465	20.4	33.25
11	67954	20.8	33.25
11	71871	21.2	33.25
11	76613	21.6	33.25
11	82472	22	33.25
11	87351	22.4	33.25
11	92459	22.8	33.25
11	97271	23.2	33.25
11	102340	23.6	33.25
11	108163	24	33.25
11	113581	24.4	33.25
11	120318	24.8	33.25
11	125966	25.2	33.25
11	132438	25.6	33.25
11	138083	26	33.25
11	144262	26.4	33.25
11	151165	26.8	33.25
11	157262	27.2	33.25
11	165408	27.6	33.25
11	173820	28	33.25
11	180489	28.4	33.25
11	188863	28.8	33.25
11	196999	29.2	33.25
11	205431	29.6	33.25
11	212919	30	33.25
11	220697	30.4	33.25
11	228795	30.8	33.25
11	239339	31.2	33.25
11	249530	31.6	33.25
11	258534	32	33.25
11	267378	32.4	33.25
11	277217	32.8	33.25
11	286502	33.2	33.25
11	297294	33.6	33.25
11	307273	34	33.25
11	317194	34.4	33.25
11	329525	34.8	33.25
11	341566	35.2	33.25
11	351747	35.6	33.25
11	363428	36	33.25
11	375173	36.4	33.25
11	386801	36.8	33.25
11	398456	37.2	33.25
11	411241	37.6	33.25
11	422856	38	33.25
11	436558	38.4	33.25
11	450508	38.8	33.25
11	464228	39.2	33.25
11	477942	39.6	33.25
11	493241	40	33.25
11	506135	40.4	33.25
11	521971	40.8	33.25
11	538377	41.2	33.25
11	554115	41.6	33.25
11	569288	42	33.25
11	584394	42.4	33.25
11	601204	42.8	33.25
11	618139	43.2	33.25
11	636780	43.6	33.25
11	653797	44	33.25
11	668960	44.4	33.25
11	687791	44.8	33.25
11	703107	45.2	33.25
11	720795	45.6	33.25
11	738351	46	33.25
11	753876	46.4	33.25
11	773809	46.8	33.25
11	792015	47.2	33.25
10	236	2.4	32.128
10	283	2.8	32.128
10	390	3.2	40.866233937417
10	484	3.6	49.524097093939
10	613	4	58.262479956962
10	741	4.4	66.977823001391
10	986	4.8	75.630328494688
10	1176	5.2	84.326778069441
10	1433	5.6	93.00263803915
10	1692	6	101.67489377595
10	1913	6.4	110.35986556394
10	2157	6.8	119.03882084967
10	2860	7.2	127.72121301028
10	3710	7.6	136.42249954695
10	4237	8	145.11361921177
10	4672	8.4	153.90319949788
10	5090	8.8	162.68189757222
10	5999	9.2	171.3805485622
10	7783	9.6	180.07621620398
10	8764	10	188.76845543614
10	9445	10.4	197.56542568807
10	10428	10.8	206.28382118758
10	11060	11.2	215.06390205175
10	11951	11.6	223.82867742585
10	13528	12	232.48059690812
10	14968	12.4	241.25069939614
10	16397	12.8	250.00705013391
10	17556	13.2	258.77083400361
10	18966	13.6	267.50472169315
10	20283	14	276.15239804461
10	21906	14.4	284.90556975119
10	24217	14.8	293.61371663067
10	26262	15.2	302.28513550237
10	28490	15.6	311.07830609587
10	30641	16	319.76695337831
10	32571	16.4	328.45044287334
10	35494	16.8	337.19485916745
10	37561	17.2	345.95164478207
10	40278	17.6	354.60117619572
10	43035	18	363.30245918132
10	45509	18.4	372.02934646498
10	48681	18.8	380.82845769748
10	52187	19.2	389.58735334085
10	55540	19.6	398.25855262688
10	60085	20	407.00134356965
10	63465	20.4	415.76231629134
10	67954	20.8	424.40660106191
10	71871	21.2	433.07194432959
10	76613	21.6	441.84937932618
10	82472	22	450.59572913342
10	87351	22.4	459.38065601297
10	92459	22.8	468.10248717685
10	97271	23.2	476.76739876668
10	102340	23.6	485.4843352793
10	108163	24	494.22125545139
10	113581	24.4	502.90955531772
10	120318	24.8	511.55789840092
10	125966	25.2	520.20511553784
10	132438	25.6	528.96736886731
10	138083	26	537.61216668253
10	144262	26.4	546.30581459885
10	151165	26.8	554.9758439082
10	157262	27.2	563.67499362181
10	165408	27.6	572.33673497997
10	173820	28	581.12438136368
10	180489	28.4	589.78175503362
10	188863	28.8	598.43944565387
10	196999	29.2	607.23471444325
10	205431	29.6	615.88893160213
10	212919	30	624.59002953676
10	220697	30.4	633.34162495654
10	228795	30.8	642.02354734351
10	239339	31.2	650.75879760631
10	249530	31.6	659.4436467911
10	258534	32	668.22581733558
10	267378	32.4	676.99816371178
10	277217	32.8	685.69603650655
10	286502	33.2	694.38376685563
10	297294	33.6	703.09778185745
10	307273	34	711.83008168661
10	317194	34.4	720.61375873432
10	329525	34.8	729.26451858414
10	341566	35.2	737.97828181261
10	351747	35.6	746.76035516801
10	363428	36	755.50372846789
10	375173	36.4	764.15515726747
10	386801	36.8	772.82481075175
10	398456	37.2	781.57912939441
10	411241	37.6	790.3481924212
10	422856	38	799.01887558494
10	436558	38.4	807.76816717524
10	450508	38.8	816.40999576724
10	464228	39.2	825.12640310989
10	477942	39.6	833.9135533667
10	493241	40	842.70622486208
10	506135	40.4	851.34725762536
10	521971	40.8	860.10608345407
10	538377	41.2	868.75797458499
10	554115	41.6	877.40263958816
10	569288	42	886.18309694201
10	584394	42.4	894.93356074675
10	601204	42.8	903.58328698437
10	618139	43.2	912.28806653553
10	636780	43.6	921.05566637102
10	653797	44	929.76784864762
10	668960	44.4	938.53471509261
10	687791	44.8	947.20902923778
10	703107	45.2	955.9926425111
10	720795	45.6	964.66012718218
10	738351	46	973.3720736866
10	753876	46.4	982.16690449546
10	773809	46.8	990.87995743717
10	792015	47.2	999.62445215383
vector 237 SlicingScenario.node[47].veinsmobility speed ETV
vector 238 SlicingScenario.node[47].veinsmobility acceleration ETV
vector 239 SlicingScenario.node[47].veinsmobility co2emission ETV
vector 240 SlicingScenario.node[48].veinsmobility posx ETV
vector 241 SlicingScenario.node[48].veinsmobility posy ETV
19	613	4	2.7392744660036
19	741	4.4	2.5918884621214
19	986	4.8	2.3585749902081
19	1176	5.2	2.5319441468108
19	1433	5.6	3.1896585301851
19	1692	6	3.124751716057
19	1913	6.4	3.7193376585663
19	2157	6.8	2.9118341684233
19	2860	7.2	1.4148898500454
19	3710	7.6	1.8255736764964
19	4237	8	2.329038307558
19	4672	8.4	1.3197418634732
19	5090	8.8	1.6999839787854
19	5999	9.2	2.5631590092301
19	7783	9.6	0.973
19	8764	10	2.310335812701
19	9445	10.4	2.9873449144404
19	10428	10.8	0.973
19	11060	11.2	1.7789801897298
19	11951	11.6	2.8330531506739
19	13528	12	0.973
19	14968	12.4	3.547146572824
19	16397	12.8	0.973
19	17556	13.2	2.1038774259556
19	18966	13.6	1.6203540774828
19	20283	14	2.3986529174765
19	21906	14.4	0.973
19	24217	14.8	1.6601337866197
19	26262	15.2	1.9452234940072
19	28490	15.6	1.6433423681367
19	30641	16	2.8577977558324
19	32571	16.4	1.8010858923805
19	35494	16.8	0.973
19	37561	17.2	0.973
19	40278	17.6	3.4704377855218
19	43035	18	1.5108898898893
19	45509	18.4	0.973
19	48681	18.8	2.1979964494989
19	52187	19.2	1.703614755367
19	55540	19.6	0.973
19	60085	20	2.1617903084991
19	63465	20.4	2.4036269741853
19	67954	20.8	0.973
19	71871	21.2	2.3782872000077
19	76613	21.6	2.1408698253702
19	82472	22	1.5093463533016
19	87351	22.4	1.4036545073175
19	92459	22.8	2.331389269055
19	97271	23.2	1.4960835574758
19	102340	23.6	2.2830388125375
19	108163	24	0.973
19	113581	24.4	2.6828112551712
19	120318	24.8	0.973
19	125966	25.2	2.9240485943317
19	132438	25.6	0.973
19	138083	26	1.6308003705349
19	144262	26.4	2.3240254470995
19	151165	26.8	1.4534159620734
19	157262	27.2	1.2936549133495
19	165408	27.6	1.9675234226671
19	173820	28	2.7092825961275
19	180489	28.4	1.4562897592481
19	188863	28.8	1.373064080892
19	196999	29.2	1.3067790380967
19	205431	29.6	2.1907262299989
19	212919	30	1.6762304277176
19	220697	30.4	2.1642548820784
19	228795	30.8	1.6730837657083
19	239339	31.2	1.4089289816135
19	249530	31.6	1.6506902802413
19	258534	32	1.4948334101537
19	267378	32.4	2.193922594779
19	277217	32.8	1.9209635260359
19	286502	33.2	2.1853255588567
19	297294	33.6	0.973
19	307273	34	2.453199949303
19	317194	34.4	0.973
19	329525	34.8	1.8662707887602
19	341566	35.2	2.8107313859968
19	351747	35.6	1.6241447398495
19	363428	36	0.973
19	375173	36.4	1.5457488346411
19	386801	36.8	2.2915490357726
19	398456	37.2	1.2487160707796
19	411241	37.6	2.4911929786026
19	422856	38	0.973
19	436558	38.4	2.659629907046
19	450508	38.8	1.4988869051738
19	464228	39.2	1.5110992108245
19	477942	39.6	1.7604480179362
19	493241	40	1.657291168803
19	506135	40.4	2.7812130431848
19	521971	40.8	0.973
19	538377	41.2	2.0465687455713
19	554115	41.6	1.2943857000286
19	569288	42	2.6922424266666
19	584394	42.4	1.1870270952514
19	601204	42.8	2.3143683146794
19	618139	43.2	1.266907977893
19	636780	43.6	2.2006319889478
19	653797	44	2.1889350483479
19	668960	44.4	0.973
19	687791	44.8	1.7861779319498
19	703107	45.2	1.6008028470709
19	720795	45.6	1.9510376791736
19	738351	46	1.6828773467488
19	753876	46.4	2.1029505843826
19	773809	46.8	1.5171713330091
19	792015	47.2	2.4962842681892
19	809818	47.6	1.7274611802975
19	827662	48	0.973
19	844512	48.4	2.1053579804848
18	613	4	0.47205253806314
18	741	4.4	0.39640659785586
18	986	4.8	0.28963185400676
18	1176	5.2	0.35321678874902
18	1433	5.6	0.60447572954782
18	1692	6	0.55882367107102
18	1913	6.4	0.76319978863467
18	2157	6.8	0.43873502706907
18	2860	7.2	-0.12905504969555
18	3710	7.6	0.027361381451043
18	4237	8	0.21500420443589
18	4672	8.4	-0.16585887200629
18	5090	8.8	-0.020863573069914
18	5999	9.2	0.30092599439854
18	7783	9.6	-0.47924846191909
18	8764	10	0.21101032086366
18	9445	10.4	0.45535570705197
18	10428	10.8	-0.41328697753117
18	11060	11.2	0.0081809652403431
18	11951	11.6	0.39780356268591
18	13528	12	-0.72598085726038
18	14968	12.4	0.66727487264048
18	16397	12.8	-0.33840422409994
18	17556	13.2	0.12935845813666
18	18966	13.6	-0.052873938753555
18	20283	14	0.23692312700445
18	21906	14.4	-0.27313667329157
18	24217	14.8	-0.037003139864167
18	26262	15.2	0.070215797401034
18	28490	15.6	-0.043665653909555
18	30641	16	0.40602216997649
18	32571	16.4	0.010835845851163
18	35494	16.8	-0.30300066009234
18	37561	17.2	-0.34957415620394
18	40278	17.6	0.63528314806299
18	43035	18	-0.096606461167932
18	45509	18.4	-0.26879213859826
18	48681	18.8	0.16314762725961
18	52187	19.2	-0.02281376766041
18	55540	19.6	-0.23994829013922
18	60085	20	0.1514918679089
18	63465	20.4	0.23794455374601
18	67954	20.8	-0.37792790995445
18	71871	21.2	0.23146984283812
18	76613	21.6	0.13954242039472
18	82472	22	-0.09645915709132
18	87351	22.4	-0.13523649526598
18	92459	22.8	0.21140177466441
18	97271	23.2	-0.10123377374839
18	102340	23.6	0.19151463720482
18	108163	24	-0.33735166804399
18	113581	24.4	0.34098121826537
18	120318	24.8	-0.42251762637789
18	125966	25.2	0.43098112306944
18	132438	25.6	-0.28597503947094
18	138083	26	-0.04910121287685
18	144262	26.4	0.20910723267266
18	151165	26.8	-0.11698889997916
18	157262	27.2	-0.1762183970282
18	165408	27.6	0.07843844099463
18	173820	28	0.3504297684617
18	180489	28.4	-0.11700467811897
18	188863	28.8	-0.14722029992845
18	196999	29.2	-0.17119559517596
18	205431	29.6	0.16154315859201
18	212919	30	-0.032336197687597
18	220697	30.4	0.14946422888897
18	228795	30.8	-0.03479793446604
18	239339	31.2	-0.1332317776978
18	249530	31.6	-0.041341326781548
18	258534	32	-0.099515592213719
18	267378	32.4	0.16327058174647
18	277217	32.8	0.059252150822431
18	286502	33.2	0.15612946089823
18	297294	33.6	-0.23406342172529
18	307273	34	0.25610240479
18	317194	34.4	-0.34009875066113
18	329525	34.8	0.040302936919034
18	341566	35.2	0.38774726283736
18	351747	35.6	-0.054875126574188
18	363428	36	-0.30773041746579
18	375173	36.4	-0.080585895339027
18	386801	36.8	0.198583857622
18	398456	37.2	-0.19335407100152
18	411241	37.6	0.27206331782509
18	422856	38	-0.32324641482083
18	436558	38.4	0.33506329478805
18	450508	38.8	-0.10002289652761
18	464228	39.2	-0.094579365933942
18	477942	39.6	-0.00026045649669459
18	493241	40	-0.038855374759219
18	506135	40.4	0.37700172886252
18	521971	40.8	-0.40398307761643
18	538377	41.2	0.10729094350244
18	554115	41.6	-0.17575538891833
18	569288	42	0.34687124530319
18	584394	42.4	-0.21713763743173
18	601204	42.8	0.20527344522998
18	618139	43.2	-0.18701844231691
18	636780	43.6	0.16300272974434
18	653797	44	0.15580163572201
18	668960	44.4	-0.32908261194825
18	687791	44.8	0.0093105564592433
18	703107	45.2	-0.060165305389095
18	720795	45.6	0.071471087750981
18	738351	46	-0.029539565279801
18	753876	46.4	0.12722192944838
18	773809	46.8	-0.092542040278207
18	792015	47.2	0.27137027701685
18	809818	47.6	-0.016097066317173
18	827662	48	-0.32866402261425
18	844512	48.4	0.12876052153297
17	484	3.6	9.3700919488377
17	613	4	9.5589129640629
17	741	4.4	9.7174756032053
17	986	4.8	9.833328344808
17	1176	5.2	9.9746150603076
17	1433	5.6	10.216405352127
17	1692	6	10.439934820555
17	1913	6.4	10.745214736009
17	2157	6.8	10.920708746837
17	2860	7.2	10.869086726958
17	3710	7.6	10.880031279539
17	4237	8	10.966032961313
17	4672	8.4	10.899689412511
17	5090	8.8	10.891343983283
17	5999	9.2	11.011714381042
17	7783	9.6	10.820014996274
17	8764	10	10.90441912462
17	9445	10.4	11.086561407441
17	10428	10.8	10.921246616428
17	11060	11.2	10.924519002524
17	11951	11.6	11.083640427599
17	13528	12	10.793248084695
17	14968	12.4	11.060158033751
17	16397	12.8	10.924796344111
17	17556	13.2	10.976539727365
17	18966	13.6	10.955390151864
17	20283	14	11.050159402666
17	21906	14.4	10.940904733349
17	24217	14.8	10.926103477404
17	26262	15.2	10.954189796364
17	28490	15.6	10.9367235348
17	30641	16	11.099132402791
17	32571	16.4	11.103466741131
17	35494	16.8	10.982266477094
17	37561	17.2	10.842436814613
17	40278	17.6	11.096550073838
17	43035	18	11.057907489371
17	45509	18.4	10.950390633931
17	48681	18.8	11.015649684835
17	52187	19.2	11.006524177771
17	55540	19.6	10.910544861715
17	60085	20	10.971141608879
17	63465	20.4	11.066319430377
17	67954	20.8	10.915148266396
17	71871	21.2	11.007736203531
17	76613	21.6	11.063553171689
17	82472	22	11.024969508852
17	87351	22.4	10.970874910746
17	92459	22.8	11.055435620612
17	97271	23.2	11.014942111112
17	102340	23.6	11.091547965994
17	108163	24	10.956607298777
17	113581	24.4	11.092999786083
17	120318	24.8	10.923992735531
17	125966	25.2	11.096385184759
17	132438	25.6	10.981995168971
17	138083	26	10.96235468382
17	144262	26.4	11.045997576889
17	151165	26.8	10.999202016898
17	157262	27.2	10.928714658086
17	165408	27.6	10.960090034484
17	173820	28	11.100261941869
17	180489	28.4	11.053460070621
17	188863	28.8	10.99457195065
17	196999	29.2	10.926093712579
17	205431	29.6	10.990710976016
17	212919	30	10.977776496941
17	220697	30.4	11.037562188497
17	228795	30.8	11.02364301471
17	239339	31.2	10.970350303631
17	249530	31.6	10.953813772919
17	258534	32	10.914007536033
17	267378	32.4	10.979315768732
17	277217	32.8	11.003016629061
17	286502	33.2	11.06546841342
17	297294	33.6	10.97184304473
17	307273	34	11.074284006646
17	317194	34.4	10.938244506381
17	329525	34.8	10.954365681149
17	341566	35.2	11.109464586284
17	351747	35.6	11.087514535654
17	363428	36	10.964422368668
17	375173	36.4	10.932188010532
17	386801	36.8	11.011621553581
17	398456	37.2	10.934279925181
17	411241	37.6	11.043105252311
17	422856	38	10.913806686382
17	436558	38.4	11.047832004298
17	450508	38.8	11.007822845686
17	464228	39.2	10.969991099313
17	477942	39.6	10.969886916714
17	493241	40	10.954344766811
17	506135	40.4	11.105145458356
17	521971	40.8	10.943552227309
17	538377	41.2	10.98646860471
17	554115	41.6	10.916166449143
17	569288	42	11.054914947264
17	584394	42.4	10.968059892291
17	601204	42.8	11.050169270383
17	618139	43.2	10.975361893456
17	636780	43.6	11.040562985354
17	653797	44	11.102883639643
17	668960	44.4	10.971250594864
17	687791	44.8	10.974974817447
17	703107	45.2	10.950908695292
17	720795	45.6	10.979497130392
17	738351	46	10.96768130428
17	753876	46.4	11.01857007606
17	773809	46.8	10.981553259948
17	792015	47.2	11.090101370755
17	809818	47.6	11.083662544228
17	827662	48	10.952196935182
17	844512	48.4	11.003701143796
14	390	3.2	36.55
14	484	3.6	36.55
14	613	4	36.55
14	741	4.4	36.55
14	986	4.8	36.55
14	1176	5.2	36.55
14	1433	5.6	36.55
14	1692	6	36.55
14	1913	6.4	36.55
14	2157	6.8	36.55
14	2860	7.2	36.55
14	3710	7.6	36.55
14	4237	8	36.55
14	4672	8.4	36.55
14	5090	8.8	36.55
14	5999	9.2	36.55
14	7783	9.6	36.55
14	8764	10	36.55
14	9445	10.4	36.55
14	10428	10.8	36.55
14	11060	11.2	36.55
14	11951	11.6	36.55
14	13528	12	36.55
14	14968	12.4	36.55
14	16397	12.8	36.55
14	17556	13.2	36.55
14	18966	13.6	36.55
14	20283	14	36.55
14	21906	14.4	36.55
14	24217	14.8	36.55
14	26262	15.2	36.55
14	28490	15.6	36.55
14	30641	16	36.55
14	32571	16.4	36.55
14	35494	16.8	36.55
14	37561	17.2	36.55
14	40278	17.6	36.55
14	43035	18	36.55
14	45509	18.4	36.55
14	48681	18.8	36.55
14	52187	19.2	36.55
14	55540	19.6	36.55
14	60085	20	36.55
14	63465	20.4	36.55
14	67954	20.8	36.55
14	71871	21.2	36.55
14	76613	21.6	36.55
14	82472	22	36.55
14	87351	22.4	36.55
14	92459	22.8	36.55
14	97271	23.2	36.55
14	102340	23.6	36.55
14	108163	24	36.55
14	113581	24.4	36.55
14	120318	24.8	36.55
14	125966	25.2	36.55
14	132438	25.6	36.55
14	138083	26	36.55
14	144262	26.4	36.55
14	151165	26.8	36.55
14	157262	27.2	36.55
14	165408	27.6	36.55
14	173820	28	36.55
14	180489	28.4	36.55
14	188863	28.8	36.55
14	196999	29.2	36.55
14	205431	29.6	36.55
14	212919	30	36.55
14	220697	30.4	36.55
14	228795	30.8	36.55
14	239339	31.2	36.55
14	249530	31.6	36.55
14	258534	32	36.55
14	267378	32.4	36.55
14	277217	32.8	36.55
14	286502	33.2	36.55
14	297294	33.6	36.55
14	307273	34	36.55
14	317194	34.4	36.55
14	329525	34.8	36.55
14	341566	35.2	36.55
14	351747	35.6	36.55
14	363428	36	36.55
14	375173	36.4	36.55
14	386801	36.8	36.55
14	398456	37.2	36.55
14	411241	37.6	36.55
14	422856	38	36.55
14	436558	38.4	36.55
14	450508	38.8	36.55
14	464228	39.2	36.55
14	477942	39.6	36.55
14	493241	40	36.55
14	506135	40.4	36.55
14	521971	40.8	36.55
14	538377	41.2	36.55
14	554115	41.6	36.55
14	569288	42	36.55
14	584394	42.4	36.55
14	601204	42.8	36.55
14	618139	43.2	36.55
14	636780	43.6	36.55
14	653797	44	36.55
14	668960	44.4	36.55
14	687791	44.8	36.55
14	703107	45.2	36.55
14	720795	45.6	36.55
14	738351	46	36.55
14	753876	46.4	36.55
14	773809	46.8	36.55
14	792015	47.2	36.55
14	809818	47.6	36.55
14	827662	48	36.55
14	844512	48.4	36.55
13	390	3.2	32.128
13	484	3.6	32.128
13	613	4	39.549112823479
13	741	4.4	47.119771891017
13	986	4.8	54.816012568756
13	1176	5.2	62.604008617844
13	1433	5.6	70.503903745607
13	1692	6	78.595296784492
13	1913	6.4	86.863725162371
13	2157	6.8	95.37393523329
13	2860	7.2	104.02313656078
13	3710	7.6	112.63145324854
13	4237	8	121.24843802193
13	4672	8.4	129.93353612729
13	5090	8.8	138.566090142
13	5999	9.2	147.19203457676
13	7783	9.6	155.91331236654
13	8764	10	164.48276424359
13	9445	10.4	173.11906419029
13	10428	10.8	181.89962082499
13	11060	11.2	190.5492481452
13	11951	11.6	199.2014671952
13	13528	12	207.97971041385
13	14968	12.4	216.52796289693
13	16397	12.8	225.28760805966
13	17556	13.2	233.9400467642
13	18966	13.6	242.63346622827
13	20283	14	251.31013522855
13	21906	14.4	260.06186147546
13	24217	14.8	268.72705802427
13	26262	15.2	277.38053197838
13	28490	15.6	286.0562502971
13	30641	16	294.71813533666
13	32571	16.4	303.50864819967
13	35494	16.8	312.30259385864
13	37561	17.2	321.0005489085
13	40278	17.6	329.58775886568
13	43035	18	338.37622652416
13	45509	18.4	347.13408925574
13	48681	18.8	355.80679863781
13	52187	19.2	364.5311931882
13	55540	19.6	373.24836033699
13	60085	20	381.88951186747
13	63465	20.4	390.57865602171
13	67954	20.8	399.34318101056
13	71871	21.2	407.98797843755
13	76613	21.6	416.70610551075
13	82472	22	425.46843962272
13	87351	22.4	434.20021547373
13	92459	22.8	442.88914840305
13	97271	23.2	451.64505341457
13	102340	23.6	460.36888756657
13	108163	24	469.15339355564
13	113581	24.4	477.83102653627
13	120318	24.8	486.61668236685
13	125966	25.2	495.26848461339
13	132438	25.6	504.05682167972
13	138083	26	512.75456185354
13	144262	26.4	521.43674676313
13	151165	26.8	530.18517684402
13	157262	27.2	538.89654484141
13	165408	27.6	547.55208685061
13	173820	28	556.23247815792
13	180489	28.4	565.02388561588
13	188863	28.8	573.77822599181
13	196999	29.2	582.48592697673
13	205431	29.6	591.13939319709
13	212919	30	599.8440362901
13	220697	30.4	608.53843527567
13	228795	30.8	617.28018452896
13	239339	31.2	626.01090979661
13	249530	31.6	634.69942723709
13	258534	32	643.37484774524
13	267378	32.4	652.01874171378
13	277217	32.8	660.71435980262
13	286502	33.2	669.42874897283
13	297294	33.6	678.19259995626
13	307273	34	686.88229964769
13	317194	34.4	695.65313258095
13	329525	34.8	704.31622223
13	341566	35.2	712.99207984947
13	351747	35.6	721.79077580181
13	363428	36	730.57208731405
13	375173	36.4	739.25590983003
13	386801	36.8	747.91420273438
13	398456	37.2	756.63540700481
13	411241	37.6	765.29535670556
13	422856	38	774.04149606539
13	436558	38.4	782.685230961
13	450508	38.8	791.4351139084
13	464228	39.2	800.15330960219
13	477942	39.6	808.84154255284
13	493241	40	817.52969299088
13	506135	40.4	826.2055340462
13	521971	40.8	835.00080924921
13	538377	41.2	843.66810261324
13	554115	41.6	852.36938574817
13	569288	42	861.01498957589
13	584394	42.4	869.77048221413
13	601204	42.8	878.45718564882
13	618139	43.2	887.20891971096
13	636780	43.6	895.90140633058
13	653797	44	904.64553221498
13	668960	44.4	913.43901605758
13	687791	44.8	922.12824652871
13	703107	45.2	930.82042658413
13	720795	45.6	939.4935462708
13	738351	46	948.18930799807
13	753876	46.4	956.87571159106
13	773809	46.8	965.6024190913
13	792015	47.2	974.29980927318
13	809818	47.6	983.08316955882
13	827662	48	991.86143029385
13	844512	48.4	1000.5355702665
vector 242 SlicingScenario.node[48].veinsmobility speed ETV
vector 243 SlicingScenario.node[49].veinsmobility posx ETV
vector 244 SlicingScenario.node[49].veinsmobility posy ETV
vector 245 SlicingScenario.node[48].veinsmobility acceleration ETV
vector 246 SlicingScenario.node[48].veinsmobility co2emission ETV
26	1176	5.2	1.6098950161366
26	1433	5.6	1.3387039556265
26	1692	6	1.5259889305209
26	1913	6.4	1.9206422543327
26	2157	6.8	1.852363530528
26	2860	7.2	2.1793531424155
26	3710	7.6	1.3664950950431
26	4237	8	0.973
26	4672	8.4	2.0497066789311
26	5090	8.8	1.4439062731314
26	5999	9.2	2.3016103642911
26	7783	9.6	1.6633272752305
26	8764	10	2.5183894335741
26	9445	10.4	0.973
26	10428	10.8	2.5878053418832
26	11060	11.2	1.3209839984719
26	11951	11.6	2.32053587071
26	13528	12	1.6064520359587
26	14968	12.4	1.3567259228324
26	16397	12.8	1.5106188400937
26	17556	13.2	2.4241278496766
26	18966	13.6	1.9901082313785
26	20283	14	1.5630019021167
26	21906	14.4	2.2401367799739
26	24217	14.8	0.973
26	26262	15.2	2.2698888756078
26	28490	15.6	1.486179893539
26	30641	16	1.2628188499416
26	32571	16.4	1.5017065570977
26	35494	16.8	2.1996605451649
26	37561	17.2	1.8220974293414
26	40278	17.6	2.2900569073554
26	43035	18	0.973
26	45509	18.4	1.4821734246531
26	48681	18.8	2.51155029831
26	52187	19.2	0.973
26	55540	19.6	1.9481202902407
26	60085	20	1.8207848545795
26	63465	20.4	1.6141749370416
26	67954	20.8	1.6777728450242
26	71871	21.2	2.3244884415644
26	76613	21.6	1.8042395105133
26	82472	22	1.3939942916573
26	87351	22.4	2.3216676921876
26	92459	22.8	0.973
26	97271	23.2	1.6194352956665
26	102340	23.6	2.7525161553597
26	108163	24	1.1892334313696
[...]
490	2330995	115.6	398.44977282166
490	2333276	116	407.20902353322
490	2335824	116.4	415.86128290413
490	2337468	116.8	424.52956909199
490	2339701	117.2	433.29957454558
490	2341130	117.6	441.96973937326
490	2343172	118	450.65510438872
490	2345566	118.4	459.38689410676
490	2346999	118.8	468.12904804939
490	2348969	119.2	476.84516231695
490	2350052	119.6	485.50895346398
490	2351986	120	494.18830537729
490	2353963	120.4	502.9671727522
490	2355316	120.8	511.71327051694
490	2357158	121.2	520.38432987101
490	2358056	121.6	529.15103596943
490	2359866	122	537.88413432587
490	2361466	122.4	546.53814264433
490	2362731	122.8	555.22076396321
490	2364212	123.2	563.99632598082
490	2364917	123.6	572.79342336755
490	2366472	124	581.46684890076
490	2367836	124.4	590.22916661285
490	2368890	124.8	598.87630548007
490	2370080	125.2	607.5999058583
490	2370733	125.6	616.32630243519
490	2372037	126	625.08715801445
490	2373190	126.4	633.79352685802
490	2373997	126.8	642.58158652411
490	2374982	127.2	651.27189431891
490	2375571	127.6	660.07093654986
490	2376537	128	668.76641596344
490	2377575	128.4	677.48855301487
490	2378197	128.8	686.25192955018
490	2379026	129.2	694.97288582872
490	2379555	129.6	703.64803550042
490	2380469	130	712.44522589171
490	2381342	130.4	721.16684691786
490	2381827	130.8	729.84514432387
490	2382606	131.2	738.50663849914
490	2383111	131.6	747.19889085802
490	2383782	132	755.95031670317
490	2384373	132.4	764.64646141262
490	2384774	132.8	773.38813663449
490	2385257	133.2	782.08191248481
490	2385585	133.6	790.79053817839
490	2386101	134	799.5485698838
490	2386549	134.4	808.26970378877
490	2386886	134.8	816.93259501426
490	2387179	135.2	825.68438258042
490	2387459	135.6	834.4009775124
490	2387895	136	843.14012997408
490	2388157	136.4	851.91461333779
490	2388389	136.8	860.58560602383
490	2388630	137.2	869.37436800658
490	2388817	137.6	878.14770244344
490	2389087	138	886.86568624896
490	2389305	138.4	895.62850342288
490	2389472	138.8	904.33327430258
490	2389691	139.2	912.9826397512
490	2389838	139.6	921.68140250719
490	2390005	140	930.37565867237
490	2390132	140.4	939.13355462777
490	2390259	140.8	947.87853845486
490	2390334	141.2	956.57737951581
490	2390408	141.6	965.2934671321
490	2390516	142	973.99541185971
490	2390603	142.4	982.76699412155
490	2390649	142.8	991.53626180848
490	2390696	143.2	1000.1982627918
499	2211847	100	2.5207228021907
499	2216847	100.4	1.8635009607429
499	2220038	100.8	0.973
499	2223994	101.2	1.8274715944367
499	2227559	101.6	2.3332080554049
499	2231479	102	1.4346284478806
499	2236167	102.4	2.0274633558345
499	2239123	102.8	0.973
499	2243023	103.2	2.8948314726021
499	2246118	103.6	1.8776242174507
499	2249886	104	0.973
499	2254100	104.4	2.5628847051941
499	2256956	104.8	1.3990867305372
499	2260701	105.2	2.4330670068728
499	2263503	105.6	1.5343776477663
499	2266845	106	1.7703440410926
499	2270871	106.4	0.973
499	2273468	106.8	3.089098363751
499	2276698	107.2	1.3316336390497
499	2279360	107.6	1.9754366756535
499	2282427	108	0.973
499	2286125	108.4	1.7822224829026
499	2288618	108.8	1.931478265729
499	2291625	109.2	2.4216075061901
499	2294010	109.6	1.9181122744178
499	2296961	110	1.3238660739748
499	2300201	110.4	1.4804209287867
499	2302582	110.8	2.6344059884068
499	2305396	111.2	0.973
499	2307375	111.6	1.8141282123053
499	2310059	112	1.5358347499031
499	2313153	112.4	2.6462804222545
499	2315295	112.8	1.6297033473318
499	2317898	113.2	0.973
499	2319789	113.6	2.5711669273424
499	2322405	114	0.973
499	2325302	114.4	2.7521117538247
499	2327181	114.8	0.973
499	2329482	115.2	1.5922204014214
499	2330995	115.6	2.4544065780388
499	2333276	116	1.5450463583607
499	2335824	116.4	1.4489634699778
499	2337468	116.8	2.6185239435857
499	2339701	117.2	1.5060341043715
499	2341130	117.6	2.2927381383388
499	2343172	118	0.973
499	2345566	118.4	2.0584622709856
499	2346999	118.8	0.973
499	2348969	119.2	2.2365565377798
499	2350052	119.6	1.3972290659692
499	2351986	120	2.5803065182201
499	2353963	120.4	0.973
499	2355316	120.8	2.6912368948514
499	2357158	121.2	1.197975785249
499	2358056	121.6	1.5055074973617
499	2359866	122	2.4360865231326
499	2361466	122.4	1.1856410960886
499	2362731	122.8	2.7442974770411
499	2364212	123.2	1.2717744705125
499	2364917	123.6	2.0923183609355
499	2366472	124	2.0292803504353
499	2367836	124.4	1.5215756213275
499	2368890	124.8	0.973
499	2370080	125.2	2.5148479417559
499	2370733	125.6	1.242503467423
499	2372037	126	1.9678335440036
499	2373190	126.4	1.8015447015663
499	2373997	126.8	1.4341833826093
499	2374982	127.2	2.0141787584219
499	2375571	127.6	1.3379868016171
499	2376537	128	1.8007273915664
499	2377575	128.4	2.0265248750523
499	2378197	128.8	1.8642117920003
499	2379026	129.2	2.0037624457351
499	2379555	129.6	2.1300531850114
499	2380469	130	1.9117351919381
499	2381342	130.4	1.3609989946138
499	2381827	130.8	0.973
499	2382606	131.2	2.1452096611325
499	2383111	131.6	1.2237567522293
499	2383782	132	2.8291342984078
499	2384373	132.4	0.973
499	2384774	132.8	1.7872202797681
499	2385257	133.2	2.4462329285167
499	2385585	133.6	1.4643041587785
499	2386101	134	1.3817794458549
499	2386549	134.4	2.1971215270196
499	2386886	134.8	2.3184585725061
499	2387179	135.2	0.973
499	2387459	135.6	1.6915371380879
499	2387895	136	1.790775776842
499	2388157	136.4	2.5843122227631
499	2388389	136.8	1.4387772961096
499	2388630	137.2	1.8144762905721
499	2388817	137.6	2.304763757716
499	2389087	138	0.973
499	2389305	138.4	1.7774002815944
499	2389472	138.8	2.4567071033616
499	2389691	139.2	0.973
499	2389838	139.6	2.742239723161
499	2390005	140	1.6625106963659
499	2390132	140.4	1.906403107488
499	2390259	140.8	0.973
499	2390334	141.2	1.6943512534236
499	2390408	141.6	2.8158706722482
499	2390516	142	1.2824159302075
499	2390603	142.4	2.3563160500344
499	2390649	142.8	1.200363855813
499	2390696	143.2	2.3163132427028
499	2390721	143.6	1.5228058514296
499	2390739	144	1.1807975198441
498	2211847	100	0.280863951426
498	2216847	100.4	0.034358903416432
498	2220038	100.8	-0.30239988502581
498	2223994	101.2	0.024542255676354
498	2227559	101.6	0.21130751643796
498	2231479	102	-0.12450621812604
498	2236167	102.4	0.097148268367162
498	2239123	102.8	-0.34696733730379
498	2243023	103.2	0.42053060524631
498	2246118	103.6	0.039378006826154
498	2249886	104	-0.42844027117826
498	2254100	104.4	0.29841622407548
498	2256956	104.8	-0.13746634556446
498	2260701	105.2	0.24734237440862
498	2263503	105.6	-0.087886704131961
498	2266845	106	0.0006170589476806
498	2270871	106.4	-0.37570043373853
498	2273468	106.8	0.49177563143894
498	2276698	107.2	-0.16363585018553
498	2279360	107.6	0.077099318848926
498	2282427	108	-0.38701595109888
498	2286125	108.4	0.0094591638771835
498	2288618	108.8	0.065195609000512
498	2291625	109.2	0.24568895832636
498	2294010	109.6	0.055776470457203
498	2296961	110	-0.16592602676246
498	2300201	110.4	-0.10599169356283
498	2302582	110.8	0.32304500567261
498	2305396	111.2	-0.36333119228948
498	2307375	111.6	0.020594452274962
498	2310059	112	-0.084053541067988
498	2313153	112.4	0.32983410404995
498	2315295	112.8	-0.051315489341506
498	2317898	113.2	-0.25866939558182
498	2319789	113.6	0.30182161869015
498	2322405	114	-0.24037261423655
498	2325302	114.4	0.36654669628479
498	2327181	114.8	-0.40786164579913
498	2329482	115.2	-0.06240141519811
498	2330995	115.6	0.2598002620507
498	2333276	116	-0.08201046497561
498	2335824	116.4	-0.11737091536634
498	2337468	116.8	0.31876959616784
498	2339701	117.2	-0.097664453322071
498	2341130	117.6	0.1946877411101
498	2343172	118	-0.22749232593924
498	2345566	118.4	0.10904086194933
498	2346999	118.8	-0.28499347658362
498	2348969	119.2	0.17790275451262
498	2350052	119.6	-0.13739037606865
498	2351986	120	0.30355682002846
498	2353963	120.4	-0.40011129691266
498	2355316	120.8	0.34644212515559
498	2357158	121.2	-0.21302393544465
498	2358056	121.6	-0.0958598513389
498	2359866	122	0.25190176744945
498	2361466	122.4	-0.21741885715164
498	2362731	122.8	0.36406854260713
498	2364212	123.2	-0.18576506653335
498	2364917	123.6	0.12123922165483
498	2366472	124	0.096082005882634
498	2367836	124.4	-0.092803314444607
498	2368890	124.8	-0.32302225159947
498	2370080	125.2	0.28055653732736
498	2370733	125.6	-0.19619670812972
498	2372037	126	0.076949634938499
498	2373190	126.4	0.014056009007617
498	2373997	126.8	-0.12345082627144
498	2374982	127.2	0.094660398550332
498	2375571	127.6	-0.15945246303454
498	2376537	128	0.015967781073414
498	2377575	128.4	0.10001322510652
498	2378197	128.8	0.038145717815499
498	2379026	129.2	0.089417515904642
498	2379555	129.6	0.13460568559822
498	2380469	130	0.052135826670563
498	2381342	130.4	-0.15261221991386
498	2381827	130.8	-0.22173030837439
498	2382606	131.2	0.143402304966
498	2383111	131.6	-0.20278992690146
498	2383782	132	0.39593001455069
498	2384373	132.4	-0.35236855910625
498	2384774	132.8	0.010404198896139
498	2385257	133.2	0.2545407396974
498	2385585	133.6	-0.1130941635929
498	2386101	134	-0.14317907684017
498	2386549	134.4	0.16273975244258
498	2386886	134.8	0.20439226727467
498	2387179	135.2	-0.39138541603461
498	2387459	135.6	-0.025259000482039
498	2387895	136	0.012249831226656
498	2388157	136.4	0.30607490276452
498	2388389	136.8	-0.12273777264636
498	2388630	137.2	0.018602110911163
498	2388817	137.6	0.19933338277042
498	2389087	138	-0.32318457844667
498	2389305	138.4	0.0061153183924034
498	2389472	138.8	0.25743080012035
498	2389691	139.2	-0.29772564349696
498	2389838	139.6	0.36276387656108
498	2390005	140	-0.040418061893432
498	2390132	140.4	0.050176367629318
498	2390259	140.8	-0.39038080128376
498	2390334	141.2	-0.024350823950954
498	2390408	141.6	0.3906659828499
498	2390516	142	-0.18181856337469
498	2390603	142.4	0.21805660577956
498	2390649	142.8	-0.21273387887049
498	2390696	143.2	0.20329994265921
498	2390721	143.6	-0.092363921226935
498	2390739	144	-0.21962652774528
497	2207739	99.6	10.971519904388
497	2211847	100	11.083865484959
497	2216847	100.4	11.097609046325
497	2220038	100.8	10.976649092315
497	2223994	101.2	10.986465994585
497	2227559	101.6	11.07098900116
497	2231479	102	11.02118651391
497	2236167	102.4	11.060045821257
497	2239123	102.8	10.921258886335
497	2243023	103.2	11.089471128434
497	2246118	103.6	11.105222331164
497	2249886	104	10.933846222693
497	2254100	104.4	11.053212712323
497	2256956	104.8	10.998226174098
497	2260701	105.2	11.097163123861
497	2263503	105.6	11.062008442208
497	2266845	106	11.062255265787
497	2270871	106.4	10.911975092292
497	2273468	106.8	11.108685344867
497	2276698	107.2	11.043231004793
497	2279360	107.6	11.074070732333
497	2282427	108	10.919264351893
497	2286125	108.4	10.923048017444
497	2288618	108.8	10.949126261044
497	2291625	109.2	11.047401844375
497	2294010	109.6	11.069712432558
497	2296961	110	11.003342021853
497	2300201	110.4	10.960945344428
497	2302582	110.8	11.090163346697
497	2305396	111.2	10.944830869781
497	2307375	111.6	10.953068650691
497	2310059	112	10.919447234264
497	2313153	112.4	11.051380875884
497	2315295	112.8	11.030854680147
497	2317898	113.2	10.927386921914
497	2319789	113.6	11.04811556939
497	2322405	114	10.951966523696
497	2325302	114.4	11.09858520221
497	2327181	114.8	10.93544054389
497	2329482	115.2	10.910479977811
497	2330995	115.6	11.014400082631
497	2333276	116	10.981595896641
497	2335824	116.4	10.934647530494
497	2337468	116.8	11.062155368961
497	2339701	117.2	11.023089587633
497	2341130	117.6	11.100964684077
497	2343172	118	11.009967753701
497	2345566	118.4	11.053584098481
497	2346999	118.8	10.939586707847
497	2348969	119.2	11.010747809652
497	2350052	119.6	10.955791659225
497	2351986	120	11.077214387236
497	2353963	120.4	10.917169868471
497	2355316	120.8	11.055746718533
497	2357158	121.2	10.970537144355
497	2358056	121.6	10.93219320382
497	2359866	122	11.0329539108
497	2361466	122.4	10.945986367939
497	2362731	122.8	11.091613784982
497	2364212	123.2	11.017307758369
497	2364917	123.6	11.06580344703
497	2366472	124	11.104236249384
497	2367836	124.4	11.067114923606
497	2368890	124.8	10.937906022966
497	2370080	125.2	11.050128637897
497	2370733	125.6	10.971649954645
497	2372037	126	11.00242980862
497	2373190	126.4	11.008052212223
497	2373997	126.8	10.958671881715
497	2374982	127.2	10.996536041135
497	2375571	127.6	10.932755055921
497	2376537	128	10.939142168351
497	2377575	128.4	10.979147458393
497	2378197	128.8	10.994405745519
497	2379026	129.2	11.030172751881
497	2379555	129.6	11.08401502612
497	2380469	130	11.104869356789
497	2381342	130.4	11.043824468823
497	2381827	130.8	10.955132345473
497	2382606	131.2	11.01249326746
497	2383111	131.6	10.931377296699
497	2383782	132	11.089749302519
497	2384373	132.4	10.948801878877
497	2384774	132.8	10.952963558435
497	2385257	133.2	11.054779854314
497	2385585	133.6	11.009542188877
497	2386101	134	10.952270558141
497	2386549	134.4	11.017366459118
497	2386886	134.8	11.099123366028
497	2387179	135.2	10.942569199614
497	2387459	135.6	10.932465599421
497	2387895	136	10.937365531912
497	2388157	136.4	11.059795493018
497	2388389	136.8	11.010700383959
497	2388630	137.2	11.018141228324
497	2388817	137.6	11.097874581432
497	2389087	138	10.968600750053
497	2389305	138.4	10.97104687741
497	2389472	138.8	11.074019197458
497	2389691	139.2	10.95492894006
497	2389838	139.6	11.100034490684
497	2390005	140	11.083867265927
497	2390132	140.4	11.103937812978
497	2390259	140.8	10.947785492465
497	2390334	141.2	10.938045162885
497	2390408	141.6	11.094311556024
497	2390516	142	11.021584130675
497	2390603	142.4	11.108806772986
497	2390649	142.8	11.023713221438
497	2390696	143.2	11.105033198502
497	2390721	143.6	11.068087630011
497	2390739	144	10.980237018913
494	2203842	99.2	29.95
494	2207739	99.6	29.95
494	2211847	100	29.95
494	2216847	100.4	29.95
494	2220038	100.8	29.95
494	2223994	101.2	29.95
494	2227559	101.6	29.95
494	2231479	102	29.95
494	2236167	102.4	29.95
494	2239123	102.8	29.95
494	2243023	103.2	29.95
494	2246118	103.6	29.95
494	2249886	104	29.95
494	2254100	104.4	29.95
494	2256956	104.8	29.95
494	2260701	105.2	29.95
494	2263503	105.6	29.95
494	2266845	106	29.95
494	2270871	106.4	29.95
494	2273468	106.8	29.95
494	2276698	107.2	29.95
494	2279360	107.6	29.95
494	2282427	108	29.95
494	2286125	108.4	29.95
494	2288618	108.8	29.95
494	2291625	109.2	29.95
494	2294010	109.6	33.25
494	2296961	110	33.25
494	2300201	110.4	33.25
494	2302582	110.8	33.25
494	2305396	111.2	33.25
494	2307375	111.6	33.25
494	2310059	112	33.25
494	2313153	112.4	33.25
494	2315295	112.8	33.25
494	2317898	113.2	33.25
494	2319789	113.6	33.25
494	2322405	114	33.25
494	2325302	114.4	33.25
494	2327181	114.8	33.25
494	2329482	115.2	33.25
494	2330995	115.6	33.25
494	2333276	116	33.25
494	2335824	116.4	33.25
494	2337468	116.8	33.25
494	2339701	117.2	33.25
494	2341130	117.6	33.25
494	2343172	118	33.25
494	2345566	118.4	33.25
494	2346999	118.8	36.55
494	2348969	119.2	36.55
494	2350052	119.6	36.55
494	2351986	120	36.55
494	2353963	120.4	36.55
494	2355316	120.8	36.55
494	2357158	121.2	36.55
494	2358056	121.6	36.55
494	2359866	122	36.55
494	2361466	122.4	36.55
494	2362731	122.8	36.55
494	2364212	123.2	36.55
494	2364917	123.6	36.55
494	2366472	124	36.55
494	2367836	124.4	36.55
494	2368890	124.8	36.55
494	2370080	125.2	36.55
494	2370733	125.6	36.55
494	2372037	126	36.55
494	2373190	126.4	36.55
494	2373997	126.8	36.55
494	2374982	127.2	36.55
494	2375571	127.6	36.55
494	2376537	128	36.55
494	2377575	128.4	36.55
494	2378197	128.8	36.55
494	2379026	129.2	36.55
494	2379555	129.6	36.55
494	2380469	130	36.55
494	2381342	130.4	36.55
494	2381827	130.8	36.55
494	2382606	131.2	36.55
494	2383111	131.6	36.55
494	2383782	132	36.55
494	2384373	132.4	36.55
494	2384774	132.8	36.55
494	2385257	133.2	36.55
494	2385585	133.6	36.55
494	2386101	134	36.55
494	2386549	134.4	36.55
494	2386886	134.8	36.55
494	2387179	135.2	36.55
494	2387459	135.6	36.55
494	2387895	136	36.55
494	2388157	136.4	36.55
494	2388389	136.8	36.55
494	2388630	137.2	36.55
494	2388817	137.6	36.55
494	2389087	138	36.55
494	2389305	138.4	36.55
494	2389472	138.8	36.55
494	2389691	139.2	36.55
494	2389838	139.6	36.55
494	2390005	140	36.55
494	2390132	140.4	36.55
494	2390259	140.8	36.55
494	2390334	141.2	36.55
494	2390408	141.6	36.55
494	2390516	142	36.55
494	2390603	142.4	36.55
494	2390649	142.8	36.55
494	2390696	143.2	36.55
494	2390721	143.6	36.55
494	2390739	144	36.55
493	2203842	99.2	32.128
493	2207739	99.6	32.128
493	2211847	100	40.817443764275
493	2216847	100.4	49.595865228363
493	2220038	100.8	58.385171593052
493	2223994	101.2	67.078677674165
493	2227559	101.6	75.779958741877
493	2231479	102	84.548182030796
493	2236167	102.4	93.276961749813
493	2239123	102.8	102.03651804025
493	2243023	103.2	110.68615507823
493	2246118	103.6	119.46901621195
493	2249886	104	128.26435229823
493	2254100	104.4	136.9239585066
493	2256956	104.8	145.67810297476
493	2260701	105.2	154.38869810465
493	2263503	105.6	163.17765129874
493	2266845	106	171.93876198497
493	2270871	106.4	180.70006815548
493	2273468	106.8	189.34235242857
493	2276698	107.2	198.14043122171
493	2279360	107.6	206.8866701775
493	2282427	108	215.65733419751
493	2286125	108.4	224.30539156421
493	2288618	108.8	232.95644559403
493	2291625	109.2	241.62815359277
493	2294010	109.6	250.37769585352
493	2296961	110	259.1449081001
493	2300201	110.4	267.85955498141
493	2302582	110.8	276.5406236942
493	2305396	111.2	285.32403306478
493	2307375	111.6	293.99233911365
493	2310059	112	302.66716948499
493	2313153	112.4	311.31537169453
493	2315295	112.8	320.06806534823
493	2317898	113.2	328.80450225491
493	2319789	113.6	337.45899269706
493	2322405	114	346.20910022802
493	2325302	114.4	354.88305771479
493	2327181	114.8	363.67313719494
493	2329482	115.2	372.3340061057
493	2330995	115.6	380.97510624812
493	2333276	116	389.69851111357
493	2335824	116.4	398.39593506371
493	2337468	116.8	407.05617590786
493	2339701	117.2	415.81740296008
493	2341130	117.6	424.54768991348
493	2343172	118	433.33965394327
493	2345566	118.4	442.0595484042
493	2346999	118.8	450.8139870102
493	2348969	119.2	459.47813968281
493	2350052	119.6	468.19865194806
493	2351986	120	476.87563894216
493	2353963	120.4	485.64879273686
493	2355316	120.8	494.29519127268
493	2357158	121.2	503.05134267376
493	2358056	121.6	511.74000809209
493	2359866	122	520.39830510952
493	2361466	122.4	529.13640460687
493	2362731	122.8	537.80562581028
493	2364212	123.2	546.59018392798
493	2364917	123.6	555.31589167261
493	2366472	124	564.08000800266
493	2367836	124.4	572.87456311217
493	2368890	124.8	581.63971813167
493	2370080	125.2	590.30253970186
493	2370733	125.6	599.05424158307
493	2372037	126	607.74378834715
493	2373190	126.4	616.45771275558
493	2373997	126.8	625.17609010766
493	2374982	127.2	633.85535823798
493	2375571	127.6	642.56461478256
493	2376537	128	651.22335678684
493	2377575	128.4	659.88715738418
493	2378197	128.8	668.58264217123
493	2379026	129.2	677.29021152168
493	2379555	129.6	686.02610834117
493	2380469	130	694.80464824185
493	2381342	130.4	703.59970477243
493	2381827	130.8	712.34641375174
493	2382606	131.2	721.02287856935
493	2383111	131.6	729.74477323718
493	2383782	132	738.40242405617
493	2384373	132.4	747.18550550376
493	2384774	132.8	755.85695659183
493	2385257	133.2	764.53170373011
493	2385585	133.6	773.28708937473
493	2386101	134	782.00664678832
493	2386549	134.4	790.68084507037
493	2386886	134.8	799.40659930599
493	2387179	135.2	808.19710501189
493	2387459	135.6	816.86361981798
493	2387895	136	825.52213257272
493	2388157	136.4	834.184526074
493	2388389	136.8	842.94388410447
493	2388630	137.2	851.66435880856
493	2388817	137.6	860.39072666139
493	2389087	138	869.18024332989
493	2389305	138.4	877.86737512393
493	2389472	138.8	886.55644425084
493	2389691	139.2	895.32706745523
493	2389838	139.6	904.00337117575
493	2390005	140	912.79459849238
493	2390132	140.4	921.57302136699
493	2390259	140.8	930.36734011487
493	2390334	141.2	939.0379862249
493	2390408	141.6	947.70091799391
493	2390516	142	956.48761274628
493	2390603	142.4	965.21670737777
493	2390649	142.8	974.01488234198
493	2390696	143.2	982.74566321336
493	2390721	143.6	991.54084950657
493	2390739	144	1000.3067749095

