version 2
run General-0-20190128-21:58:25-8096
attr configname General
attr datetime 20190128-21:58:25
attr experiment General
attr inifile omnetpp.ini
attr iterationvars ""
attr iterationvarsf ""
attr measurement ""
attr network com.liborio.slicing.SlicingScenario
attr processid 8096
attr repetition 0
attr replication #0
attr resultdir results
attr runnumber 0
attr seedset 0
param **.debug false
param **.coreDebug false
param *.playgroundSizeX 1200m
param *.playgroundSizeY 1200m
param *.playgroundSizeZ 50m
param *.annotations.draw true
param *.manager.updateInterval 0.4s
param *.manager.host "\"localhost\""
param *.manager.port 9999
param *.manager.autoShutdown true
param *.manager.launchConfig "xmldoc(\"highway.launchd.xml\")"
param *.connectionManager.sendDirect true
param *.connectionManager.maxInterfDist 2600m
param *.connectionManager.drawMaxIntfDist false
param *.rsu[*].applType "\"RSUApp\""
param *.rsu[*].appl.headerLength "80 bit"
param *.rsu[*].appl.sendBeacons false
param *.rsu[*].appl.dataOnSch true
param *.rsu[*].appl.beaconInterval 1s
param *.rsu[*].appl.beaconUserPriority 7
param *.rsu[*].appl.dataUserPriority 5
param *.rsu[*].nic.mac1609_4.useServiceChannel true
param *.rsu[*].nic.mac1609_4.txPower 20mW
param *.rsu[*].nic.mac1609_4.bitrate 6Mbps
param *.rsu[*].nic.phy80211p.sensitivity -89dBm
param *.rsu[0].mobility.x 515.0
param *.rsu[0].mobility.y 25.0
param *.rsu[0].mobility.z 3
param *.node[*].applType "\"VehApp\""
param *.node[*].appl.headerLength "80 bit"
param *.node[*].appl.sendBeacons true
param *.node[*].appl.dataOnSch true
param *.node[*].appl.beaconInterval 1s
param *.node[*].appl.wsaInterval 1s
param *.node[*].nic.mac1609_4.useServiceChannel true
param *.node[*].nic.mac1609_4.txPower 20mW
param *.node[*].nic.mac1609_4.bitrate 6Mbps
param *.node[*].nic.phy80211p.sensitivity -84.39dBm
param *.node[*].veinsmobilityType.debug true
param *.node[*].veinsmobility.x 0
param *.node[*].veinsmobility.y 0
param *.node[*].veinsmobility.z 1.895
param *.**.nic.phy80211p.useThermalNoise true
param *.**.nic.phy80211p.thermalNoise -110dBm
param *.**.nic.phy80211p.decider "xmldoc(\"config.xml\")"
param *.**.nic.phy80211p.analogueModels "xmldoc(\"config.xml\")"
param *.**.nic.phy80211p.usePropagationDelay true
param *.**.nic.phy80211p.antenna "xmldoc(\"antenna.xml\", \"/root/Antenna[@id='monopole']\")"

scalar SlicingScenario.node[0].appl generatedWSMs 0
scalar SlicingScenario.node[0].appl receivedWSMs 0
scalar SlicingScenario.node[0].appl generatedBSMs 45
scalar SlicingScenario.node[0].appl receivedBSMs 566
scalar SlicingScenario.node[0].appl generatedWSAs 0
scalar SlicingScenario.node[0].appl receivedWSAs 0
scalar SlicingScenario.node[0].appl generatedWSAs 0
scalar SlicingScenario.node[0].appl receivedWSAs 0
scalar SlicingScenario.node[0].appl generatedEntMsgA 0
scalar SlicingScenario.node[0].appl receivedEntMsgA 99
scalar SlicingScenario.node[0].appl generatedEntMsgB 0
scalar SlicingScenario.node[0].appl receivedEntMsgB 0
scalar SlicingScenario.node[0].nic.phy80211p busyTime 0.08788495575221
scalar SlicingScenario.node[0].nic.mac1609_4 ReceivedUnicastPackets 0
scalar SlicingScenario.node[0].nic.mac1609_4 ReceivedBroadcasts 2789
scalar SlicingScenario.node[0].nic.mac1609_4 SentPackets 45
scalar SlicingScenario.node[0].nic.mac1609_4 SentAcknowledgements 0
scalar SlicingScenario.node[0].nic.mac1609_4 SNIRLostPackets 0
scalar SlicingScenario.node[0].nic.mac1609_4 RXTXLostPackets 0
scalar SlicingScenario.node[0].nic.mac1609_4 TotalLostPackets 0
scalar SlicingScenario.node[0].nic.mac1609_4 DroppedPacketsInMac 0
scalar SlicingScenario.node[0].nic.mac1609_4 TooLittleTime 0
scalar SlicingScenario.node[0].nic.mac1609_4 TimesIntoBackoff 45
scalar SlicingScenario.node[0].nic.mac1609_4 SlotsBackoff 76
scalar SlicingScenario.node[0].nic.mac1609_4 NumInternalContention 0
scalar SlicingScenario.node[0].nic.mac1609_4 totalBusyTime 3.977125
scalar SlicingScenario.node[0].veinsmobility startTime 0.4
scalar SlicingScenario.node[0].veinsmobility totalTime 44.8
scalar SlicingScenario.node[0].veinsmobility stopTime 45.6
scalar SlicingScenario.node[0].veinsmobility minSpeed 10.910407549553
scalar SlicingScenario.node[0].veinsmobility maxSpeed 11.109227929441
scalar SlicingScenario.node[0].veinsmobility totalDistance 976.29149039289
scalar SlicingScenario.node[0].veinsmobility totalCO2Emission 79.146340040212
scalar SlicingScenario.rsu[0].appl idVeh 55
scalar SlicingScenario.rsu[0].appl receivedEntMsgA 0
scalar SlicingScenario.rsu[0].appl generatedEntMsgA 107
scalar SlicingScenario.node[1].appl generatedWSMs 0
scalar SlicingScenario.node[1].appl receivedWSMs 0
scalar SlicingScenario.node[1].appl generatedBSMs 46
scalar SlicingScenario.node[1].appl receivedBSMs 621
scalar SlicingScenario.node[1].appl generatedWSAs 0
scalar SlicingScenario.node[1].appl receivedWSAs 0
scalar SlicingScenario.node[1].appl generatedWSAs 0
scalar SlicingScenario.node[1].appl receivedWSAs 0
scalar SlicingScenario.node[1].appl generatedEntMsgA 0
scalar SlicingScenario.node[1].appl receivedEntMsgA 102
scalar SlicingScenario.node[1].appl generatedEntMsgB 0
scalar SlicingScenario.node[1].appl receivedEntMsgB 0
scalar SlicingScenario.node[1].nic.phy80211p busyTime 0.091611478260867
scalar SlicingScenario.node[1].nic.mac1609_4 ReceivedUnicastPackets 0
scalar SlicingScenario.node[1].nic.mac1609_4 ReceivedBroadcasts 2977
scalar SlicingScenario.node[1].nic.mac1609_4 SentPackets 46
scalar SlicingScenario.node[1].nic.mac1609_4 SentAcknowledgements 0
scalar SlicingScenario.node[1].nic.mac1609_4 SNIRLostPackets 0
scalar SlicingScenario.node[1].nic.mac1609_4 RXTXLostPackets 0
scalar SlicingScenario.node[1].nic.mac1609_4 TotalLostPackets 0
scalar SlicingScenario.node[1].nic.mac1609_4 DroppedPacketsInMac 0
scalar SlicingScenario.node[1].nic.mac1609_4 TooLittleTime 0
scalar SlicingScenario.node[1].nic.mac1609_4 TimesIntoBackoff 46
scalar SlicingScenario.node[1].nic.mac1609_4 SlotsBackoff 76
scalar SlicingScenario.node[1].nic.mac1609_4 NumInternalContention 0
scalar SlicingScenario.node[1].nic.mac1609_4 totalBusyTime 4.218958
scalar SlicingScenario.node[1].veinsmobility startTime 1.2
scalar SlicingScenario.node[1].veinsmobility totalTime 45.6
scalar SlicingScenario.node[1].veinsmobility stopTime 47.2
scalar SlicingScenario.node[1].veinsmobility minSpeed 7.7903570285312
scalar SlicingScenario.node[1].veinsmobility maxSpeed 11.109856607849
scalar SlicingScenario.node[1].veinsmobility totalDistance 976.79363134694
scalar SlicingScenario.node[1].veinsmobility totalCO2Emission 87.219605166096
scalar SlicingScenario.node[2].appl generatedWSMs 0
scalar SlicingScenario.node[2].appl receivedWSMs 0
scalar SlicingScenario.node[2].appl generatedBSMs 45
scalar SlicingScenario.node[2].appl receivedBSMs 654
scalar SlicingScenario.node[2].appl generatedWSAs 0
scalar SlicingScenario.node[2].appl receivedWSAs 0
scalar SlicingScenario.node[2].appl generatedWSAs 0
scalar SlicingScenario.node[2].appl receivedWSAs 0
scalar SlicingScenario.node[2].appl generatedEntMsgA 0
scalar SlicingScenario.node[2].appl receivedEntMsgA 0
scalar SlicingScenario.node[2].appl generatedEntMsgB 0
scalar SlicingScenario.node[2].appl receivedEntMsgB 310
scalar SlicingScenario.node[2].nic.phy80211p busyTime 0.098098761061944
scalar SlicingScenario.node[2].nic.mac1609_4 ReceivedUnicastPackets 0
scalar SlicingScenario.node[2].nic.mac1609_4 ReceivedBroadcasts 3137
scalar SlicingScenario.node[2].nic.mac1609_4 SentPackets 45
scalar SlicingScenario.node[2].nic.mac1609_4 SentAcknowledgements 0
scalar SlicingScenario.node[2].nic.mac1609_4 SNIRLostPackets 0
scalar SlicingScenario.node[2].nic.mac1609_4 RXTXLostPackets 0
scalar SlicingScenario.node[2].nic.mac1609_4 TotalLostPackets 0
scalar SlicingScenario.node[2].nic.mac1609_4 DroppedPacketsInMac 0
scalar SlicingScenario.node[2].nic.mac1609_4 TooLittleTime 0
scalar SlicingScenario.node[2].nic.mac1609_4 TimesIntoBackoff 45
scalar SlicingScenario.node[2].nic.mac1609_4 SlotsBackoff 59
scalar SlicingScenario.node[2].nic.mac1609_4 NumInternalContention 0
scalar SlicingScenario.node[2].nic.mac1609_4 totalBusyTime 4.438789
scalar SlicingScenario.node[2].veinsmobility startTime 2.4
scalar SlicingScenario.node[2].veinsmobility totalTime 44.8
scalar SlicingScenario.node[2].veinsmobility stopTime 47.6
scalar SlicingScenario.node[2].veinsmobility minSpeed 10.910394903123
scalar SlicingScenario.node[2].veinsmobility maxSpeed 11.109988929927
scalar SlicingScenario.node[2].veinsmobility totalDistance 976.26386207634
scalar SlicingScenario.node[2].veinsmobility totalCO2Emission 79.285196134922
scalar SlicingScenario.node[3].appl generatedWSMs 0
scalar SlicingScenario.node[3].appl receivedWSMs 0
scalar SlicingScenario.node[3].appl generatedBSMs 45
scalar SlicingScenario.node[3].appl receivedBSMs 742
scalar SlicingScenario.node[3].appl generatedWSAs 0
scalar SlicingScenario.node[3].appl receivedWSAs 0
scalar SlicingScenario.node[3].appl generatedWSAs 0
scalar SlicingScenario.node[3].appl receivedWSAs 0
scalar SlicingScenario.node[3].appl generatedEntMsgA 0
scalar SlicingScenario.node[3].appl receivedEntMsgA 0
scalar SlicingScenario.node[3].appl generatedEntMsgB 0
scalar SlicingScenario.node[3].appl receivedEntMsgB 296
scalar SlicingScenario.node[3].nic.phy80211p busyTime 0.098314210526313
scalar SlicingScenario.node[3].nic.mac1609_4 ReceivedUnicastPackets 0
scalar SlicingScenario.node[3].nic.mac1609_4 ReceivedBroadcasts 3248
scalar SlicingScenario.node[3].nic.mac1609_4 SentPackets 45
scalar SlicingScenario.node[3].nic.mac1609_4 SentAcknowledgements 0
scalar SlicingScenario.node[3].nic.mac1609_4 SNIRLostPackets 0
scalar SlicingScenario.node[3].nic.mac1609_4 RXTXLostPackets 0
scalar SlicingScenario.node[3].nic.mac1609_4 TotalLostPackets 0
scalar SlicingScenario.node[3].nic.mac1609_4 DroppedPacketsInMac 0
scalar SlicingScenario.node[3].nic.mac1609_4 TooLittleTime 0
scalar SlicingScenario.node[3].nic.mac1609_4 TimesIntoBackoff 90
scalar SlicingScenario.node[3].nic.mac1609_4 SlotsBackoff 68
scalar SlicingScenario.node[3].nic.mac1609_4 NumInternalContention 0
scalar SlicingScenario.node[3].nic.mac1609_4 totalBusyTime 4.487853
scalar SlicingScenario.node[3].veinsmobility startTime 3.2
scalar SlicingScenario.node[3].veinsmobility totalTime 45.2
scalar SlicingScenario.node[3].veinsmobility stopTime 48.8
scalar SlicingScenario.node[3].veinsmobility minSpeed 9.3700919488377
scalar SlicingScenario.node[3].veinsmobility maxSpeed 11.109464586284
scalar SlicingScenario.node[3].veinsmobility totalDistance 977.1225015724
scalar SlicingScenario.node[3].veinsmobility totalCO2Emission 84.119988180957
scalar SlicingScenario.rsu[0].appl idVeh 13
scalar SlicingScenario.rsu[0].appl receivedEntMsgA 0
scalar SlicingScenario.rsu[0].appl generatedEntMsgA 157
scalar SlicingScenario.node[4].appl generatedWSMs 0
scalar SlicingScenario.node[4].appl receivedWSMs 0
scalar SlicingScenario.node[4].appl generatedBSMs 46
scalar SlicingScenario.node[4].appl receivedBSMs 738
scalar SlicingScenario.node[4].appl generatedWSAs 0
scalar SlicingScenario.node[4].appl receivedWSAs 0
scalar SlicingScenario.node[4].appl generatedWSAs 0
scalar SlicingScenario.node[4].appl receivedWSAs 0
scalar SlicingScenario.node[4].appl generatedEntMsgA 0
scalar SlicingScenario.node[4].appl receivedEntMsgA 0
scalar SlicingScenario.node[4].appl generatedEntMsgB 0
scalar SlicingScenario.node[4].appl receivedEntMsgB 303
scalar SlicingScenario.node[4].nic.phy80211p busyTime 0.10564814159292
scalar SlicingScenario.node[4].nic.mac1609_4 ReceivedUnicastPackets 0
scalar SlicingScenario.node[4].nic.mac1609_4 ReceivedBroadcasts 3408
scalar SlicingScenario.node[4].nic.mac1609_4 SentPackets 46
scalar SlicingScenario.node[4].nic.mac1609_4 SentAcknowledgements 0
scalar SlicingScenario.node[4].nic.mac1609_4 SNIRLostPackets 0
scalar SlicingScenario.node[4].nic.mac1609_4 RXTXLostPackets 0
scalar SlicingScenario.node[4].nic.mac1609_4 TotalLostPackets 0
scalar SlicingScenario.node[4].nic.mac1609_4 DroppedPacketsInMac 0
scalar SlicingScenario.node[4].nic.mac1609_4 TooLittleTime 0
scalar SlicingScenario.node[4].nic.mac1609_4 TimesIntoBackoff 46
scalar SlicingScenario.node[4].nic.mac1609_4 SlotsBackoff 78
scalar SlicingScenario.node[4].nic.mac1609_4 NumInternalContention 0
scalar SlicingScenario.node[4].nic.mac1609_4 totalBusyTime 4.780126
scalar SlicingScenario.node[4].veinsmobility startTime 4.4
scalar SlicingScenario.node[4].veinsmobility totalTime 44.8
scalar SlicingScenario.node[4].veinsmobility stopTime 49.6
scalar SlicingScenario.node[4].veinsmobility minSpeed 10.911153382799
scalar SlicingScenario.node[4].veinsmobility maxSpeed 11.106625664877
scalar SlicingScenario.node[4].veinsmobility totalDistance 975.75713337499
scalar SlicingScenario.node[4].veinsmobility totalCO2Emission 77.944206535554
scalar SlicingScenario.node[5].appl generatedWSMs 0
scalar SlicingScenario.node[5].appl receivedWSMs 0
scalar SlicingScenario.node[5].appl generatedBSMs 45
scalar SlicingScenario.node[5].appl receivedBSMs 776
scalar SlicingScenario.node[5].appl generatedWSAs 0
scalar SlicingScenario.node[5].appl receivedWSAs 0
scalar SlicingScenario.node[5].appl generatedWSAs 0
scalar SlicingScenario.node[5].appl receivedWSAs 0
scalar SlicingScenario.node[5].appl generatedEntMsgA 0
scalar SlicingScenario.node[5].appl receivedEntMsgA 0
scalar SlicingScenario.node[5].appl generatedEntMsgB 0
scalar SlicingScenario.node[5].appl receivedEntMsgB 295
scalar SlicingScenario.node[5].nic.phy80211p busyTime 0.10809398230088
scalar SlicingScenario.node[5].nic.mac1609_4 ReceivedUnicastPackets 0
scalar SlicingScenario.node[5].nic.mac1609_4 ReceivedBroadcasts 3511
scalar SlicingScenario.node[5].nic.mac1609_4 SentPackets 45
scalar SlicingScenario.node[5].nic.mac1609_4 SentAcknowledgements 0
scalar SlicingScenario.node[5].nic.mac1609_4 SNIRLostPackets 0
scalar SlicingScenario.node[5].nic.mac1609_4 RXTXLostPackets 0
scalar SlicingScenario.node[5].nic.mac1609_4 TotalLostPackets 0
scalar SlicingScenario.node[5].nic.mac1609_4 DroppedPacketsInMac 0
scalar SlicingScenario.node[5].nic.mac1609_4 TooLittleTime 0
scalar SlicingScenario.node[5].nic.mac1609_4 TimesIntoBackoff 45
scalar SlicingScenario.node[5].nic.mac1609_4 SlotsBackoff 77
scalar SlicingScenario.node[5].nic.mac1609_4 NumInternalContention 0
scalar SlicingScenario.node[5].nic.mac1609_4 totalBusyTime 4.890573
scalar SlicingScenario.node[5].veinsmobility startTime 5.2
scalar SlicingScenario.node[5].veinsmobility totalTime 44.8
scalar SlicingScenario.node[5].veinsmobility stopTime 50.4
scalar SlicingScenario.node[5].veinsmobility minSpeed 10.913550443798
scalar SlicingScenario.node[5].veinsmobility maxSpeed 11.109459357141
scalar SlicingScenario.node[5].veinsmobility totalDistance 977.39288392271
scalar SlicingScenario.node[5].veinsmobility totalCO2Emission 79.391115880917
scalar SlicingScenario.rsu[0].appl idVeh 19
scalar SlicingScenario.rsu[0].appl receivedEntMsgA 0
scalar SlicingScenario.rsu[0].appl generatedEntMsgA 157
scalar SlicingScenario.rsu[0].appl idVeh 25
scalar SlicingScenario.rsu[0].appl receivedEntMsgB 0
scalar SlicingScenario.rsu[0].appl generatedEntMsgB 494
scalar SlicingScenario.node[6].appl generatedWSMs 0
scalar SlicingScenario.node[6].appl receivedWSMs 0
scalar SlicingScenario.node[6].appl generatedBSMs 45
scalar SlicingScenario.node[6].appl receivedBSMs 825
scalar SlicingScenario.node[6].appl generatedWSAs 0
scalar SlicingScenario.node[6].appl receivedWSAs 0
scalar SlicingScenario.node[6].appl generatedWSAs 0
scalar SlicingScenario.node[6].appl receivedWSAs 0
scalar SlicingScenario.node[6].appl generatedEntMsgA 0
scalar SlicingScenario.node[6].appl receivedEntMsgA 0
scalar SlicingScenario.node[6].appl generatedEntMsgB 0
scalar SlicingScenario.node[6].appl receivedEntMsgB 289
scalar SlicingScenario.node[6].nic.phy80211p busyTime 0.11368859649122
scalar SlicingScenario.node[6].nic.mac1609_4 ReceivedUnicastPackets 0
scalar SlicingScenario.node[6].nic.mac1609_4 ReceivedBroadcasts 3726
scalar SlicingScenario.node[6].nic.mac1609_4 SentPackets 45
scalar SlicingScenario.node[6].nic.mac1609_4 SentAcknowledgements 0
scalar SlicingScenario.node[6].nic.mac1609_4 SNIRLostPackets 0
scalar SlicingScenario.node[6].nic.mac1609_4 RXTXLostPackets 0
scalar SlicingScenario.node[6].nic.mac1609_4 TotalLostPackets 0
scalar SlicingScenario.node[6].nic.mac1609_4 DroppedPacketsInMac 0
scalar SlicingScenario.node[6].nic.mac1609_4 TooLittleTime 0
scalar SlicingScenario.node[6].nic.mac1609_4 TimesIntoBackoff 45
scalar SlicingScenario.node[6].nic.mac1609_4 SlotsBackoff 66
scalar SlicingScenario.node[6].nic.mac1609_4 NumInternalContention 0
scalar SlicingScenario.node[6].nic.mac1609_4 totalBusyTime 5.190841154816
scalar SlicingScenario.node[6].veinsmobility startTime 6.4
scalar SlicingScenario.node[6].veinsmobility totalTime 45.2
scalar SlicingScenario.node[6].veinsmobility stopTime 52
scalar SlicingScenario.node[6].veinsmobility minSpeed 9.4698318319517
scalar SlicingScenario.node[6].veinsmobility maxSpeed 11.109190378888
scalar SlicingScenario.node[6].veinsmobility totalDistance 978.14948010785
scalar SlicingScenario.node[6].veinsmobility totalCO2Emission 82.950519725773
scalar SlicingScenario.node[7].appl generatedWSMs 0
scalar SlicingScenario.node[7].appl receivedWSMs 0
scalar SlicingScenario.node[7].appl generatedBSMs 45
scalar SlicingScenario.node[7].appl receivedBSMs 815
scalar SlicingScenario.node[7].appl generatedWSAs 0
scalar SlicingScenario.node[7].appl receivedWSAs 0
scalar SlicingScenario.node[7].appl generatedWSAs 0
scalar SlicingScenario.node[7].appl receivedWSAs 0
scalar SlicingScenario.node[7].appl generatedEntMsgA 0
scalar SlicingScenario.node[7].appl receivedEntMsgA 74
scalar SlicingScenario.node[7].appl generatedEntMsgB 0
scalar SlicingScenario.node[7].appl receivedEntMsgB 0
scalar SlicingScenario.node[7].nic.phy80211p busyTime 0.11511734513274
scalar SlicingScenario.node[7].nic.mac1609_4 ReceivedUnicastPackets 0
scalar SlicingScenario.node[7].nic.mac1609_4 ReceivedBroadcasts 3727
scalar SlicingScenario.node[7].nic.mac1609_4 SentPackets 45
scalar SlicingScenario.node[7].nic.mac1609_4 SentAcknowledgements 0
scalar SlicingScenario.node[7].nic.mac1609_4 SNIRLostPackets 0
scalar SlicingScenario.node[7].nic.mac1609_4 RXTXLostPackets 0
scalar SlicingScenario.node[7].nic.mac1609_4 TotalLostPackets 0
scalar SlicingScenario.node[7].nic.mac1609_4 DroppedPacketsInMac 0
scalar SlicingScenario.node[7].nic.mac1609_4 TooLittleTime 0
scalar SlicingScenario.node[7].nic.mac1609_4 TimesIntoBackoff 90
scalar SlicingScenario.node[7].nic.mac1609_4 SlotsBackoff 75
scalar SlicingScenario.node[7].nic.mac1609_4 NumInternalContention 0
scalar SlicingScenario.node[7].nic.mac1609_4 totalBusyTime 5.208029
scalar SlicingScenario.node[7].veinsmobility startTime 7.2
scalar SlicingScenario.node[7].veinsmobility totalTime 44.8
scalar SlicingScenario.node[7].veinsmobility stopTime 52.4
scalar SlicingScenario.node[7].veinsmobility minSpeed 10.912118045045
scalar SlicingScenario.node[7].veinsmobility maxSpeed 11.107043814184
scalar SlicingScenario.node[7].veinsmobility totalDistance 976.50995429638
scalar SlicingScenario.node[7].veinsmobility totalCO2Emission 78.367321792873
scalar SlicingScenario.rsu[0].appl idVeh 31
scalar SlicingScenario.rsu[0].appl receivedEntMsgB 0
scalar SlicingScenario.rsu[0].appl generatedEntMsgB 484
scalar SlicingScenario.rsu[0].appl idVeh 37
scalar SlicingScenario.rsu[0].appl receivedEntMsgB 0
scalar SlicingScenario.rsu[0].appl generatedEntMsgB 489
scalar SlicingScenario.rsu[0].appl idVeh 43
scalar SlicingScenario.rsu[0].appl receivedEntMsgB 0
scalar SlicingScenario.rsu[0].appl generatedEntMsgB 459
scalar SlicingScenario.node[8].appl generatedWSMs 0
scalar SlicingScenario.node[8].appl receivedWSMs 0
scalar SlicingScenario.node[8].appl generatedBSMs 45
scalar SlicingScenario.node[8].appl receivedBSMs 861
scalar SlicingScenario.node[8].appl generatedWSAs 0
scalar SlicingScenario.node[8].appl receivedWSAs 0
scalar SlicingScenario.node[8].appl generatedWSAs 0
scalar SlicingScenario.node[8].appl receivedWSAs 0
scalar SlicingScenario.node[8].appl generatedEntMsgA 0
scalar SlicingScenario.node[8].appl receivedEntMsgA 79
scalar SlicingScenario.node[8].appl generatedEntMsgB 0
scalar SlicingScenario.node[8].appl receivedEntMsgB 0
scalar SlicingScenario.node[8].nic.phy80211p busyTime 0.11967
scalar SlicingScenario.node[8].nic.mac1609_4 ReceivedUnicastPackets 0
scalar SlicingScenario.node[8].nic.mac1609_4 ReceivedBroadcasts 3910
scalar SlicingScenario.node[8].nic.mac1609_4 SentPackets 45
scalar SlicingScenario.node[8].nic.mac1609_4 SentAcknowledgements 0
scalar SlicingScenario.node[8].nic.mac1609_4 SNIRLostPackets 0
scalar SlicingScenario.node[8].nic.mac1609_4 RXTXLostPackets 0
scalar SlicingScenario.node[8].nic.mac1609_4 TotalLostPackets 0
scalar SlicingScenario.node[8].nic.mac1609_4 DroppedPacketsInMac 0
scalar SlicingScenario.node[8].nic.mac1609_4 TooLittleTime 0
scalar SlicingScenario.node[8].nic.mac1609_4 TimesIntoBackoff 45
scalar SlicingScenario.node[8].nic.mac1609_4 SlotsBackoff 72
scalar SlicingScenario.node[8].nic.mac1609_4 NumInternalContention 0
scalar SlicingScenario.node[8].nic.mac1609_4 totalBusyTime 5.46367878077
scalar SlicingScenario.node[8].veinsmobility startTime 8.4
scalar SlicingScenario.node[8].veinsmobility totalTime 45.2
scalar SlicingScenario.node[8].veinsmobility stopTime 54
scalar SlicingScenario.node[8].veinsmobility minSpeed 9.717088124444
scalar SlicingScenario.node[8].veinsmobility maxSpeed 11.106139879106
scalar SlicingScenario.node[8].veinsmobility totalDistance 977.7314669312
scalar SlicingScenario.node[8].veinsmobility totalCO2Emission 82.010520824235
scalar SlicingScenario.node[9].appl generatedWSMs 0
scalar SlicingScenario.node[9].appl receivedWSMs 0
scalar SlicingScenario.node[9].appl generatedBSMs 45
scalar SlicingScenario.node[9].appl receivedBSMs 851
scalar SlicingScenario.node[9].appl generatedWSAs 0
scalar SlicingScenario.node[9].appl receivedWSAs 0
scalar SlicingScenario.node[9].appl generatedWSAs 0
scalar SlicingScenario.node[9].appl receivedWSAs 0
scalar SlicingScenario.node[9].appl generatedEntMsgA 0
scalar SlicingScenario.node[9].appl receivedEntMsgA 79
scalar SlicingScenario.node[9].appl generatedEntMsgB 0
scalar SlicingScenario.node[9].appl receivedEntMsgB 0
scalar SlicingScenario.node[9].nic.phy80211p busyTime 0.12266017699115
scalar SlicingScenario.node[9].nic.mac1609_4 ReceivedUnicastPackets 0
scalar SlicingScenario.node[9].nic.mac1609_4 ReceivedBroadcasts 3948
scalar SlicingScenario.node[9].nic.mac1609_4 SentPackets 45
scalar SlicingScenario.node[9].nic.mac1609_4 SentAcknowledgements 0
scalar SlicingScenario.node[9].nic.mac1609_4 SNIRLostPackets 0
scalar SlicingScenario.node[9].nic.mac1609_4 RXTXLostPackets 0
scalar SlicingScenario.node[9].nic.mac1609_4 TotalLostPackets 0
scalar SlicingScenario.node[9].nic.mac1609_4 DroppedPacketsInMac 0
scalar SlicingScenario.node[9].nic.mac1609_4 TooLittleTime 0
scalar SlicingScenario.node[9].nic.mac1609_4 TimesIntoBackoff 45
scalar SlicingScenario.node[9].nic.mac1609_4 SlotsBackoff 58
scalar SlicingScenario.node[9].nic.mac1609_4 NumInternalContention 0
scalar SlicingScenario.node[9].nic.mac1609_4 totalBusyTime 5.548965
scalar SlicingScenario.node[9].veinsmobility startTime 9.2
scalar SlicingScenario.node[9].veinsmobility totalTime 44.8
scalar SlicingScenario.node[9].veinsmobility stopTime 54.4
scalar SlicingScenario.node[9].veinsmobility minSpeed 10.911621934166
scalar SlicingScenario.node[9].veinsmobility maxSpeed 11.109861689936
scalar SlicingScenario.node[9].veinsmobility totalDistance 977.93091989929
scalar SlicingScenario.node[9].veinsmobility totalCO2Emission 78.64594355304
scalar SlicingScenario.node[10].appl generatedWSMs 0
scalar SlicingScenario.node[10].appl receivedWSMs 0
scalar SlicingScenario.node[10].appl generatedBSMs 45
scalar SlicingScenario.node[10].appl receivedBSMs 887
scalar SlicingScenario.node[10].appl generatedWSAs 0
scalar SlicingScenario.node[10].appl receivedWSAs 0
scalar SlicingScenario.node[10].appl generatedWSAs 0
scalar SlicingScenario.node[10].appl receivedWSAs 0
scalar SlicingScenario.node[10].appl generatedEntMsgA 0
scalar SlicingScenario.node[10].appl receivedEntMsgA 0
scalar SlicingScenario.node[10].appl generatedEntMsgB 0
scalar SlicingScenario.node[10].appl receivedEntMsgB 244
scalar SlicingScenario.node[10].nic.phy80211p busyTime 0.12713132743362
scalar SlicingScenario.node[10].nic.mac1609_4 ReceivedUnicastPackets 0
scalar SlicingScenario.node[10].nic.mac1609_4 ReceivedBroadcasts 4091
scalar SlicingScenario.node[10].nic.mac1609_4 SentPackets 45
scalar SlicingScenario.node[10].nic.mac1609_4 SentAcknowledgements 0
scalar SlicingScenario.node[10].nic.mac1609_4 SNIRLostPackets 0
scalar SlicingScenario.node[10].nic.mac1609_4 RXTXLostPackets 0
scalar SlicingScenario.node[10].nic.mac1609_4 TotalLostPackets 0
scalar SlicingScenario.node[10].nic.mac1609_4 DroppedPacketsInMac 0
scalar SlicingScenario.node[10].nic.mac1609_4 TooLittleTime 0
scalar SlicingScenario.node[10].nic.mac1609_4 TimesIntoBackoff 90
scalar SlicingScenario.node[10].nic.mac1609_4 SlotsBackoff 55
scalar SlicingScenario.node[10].nic.mac1609_4 NumInternalContention 0
scalar SlicingScenario.node[10].nic.mac1609_4 totalBusyTime 5.751061
scalar SlicingScenario.node[10].veinsmobility startTime 10.4
scalar SlicingScenario.node[10].veinsmobility totalTime 44.8
scalar SlicingScenario.node[10].veinsmobility stopTime 55.6
scalar SlicingScenario.node[10].veinsmobility minSpeed 10.910512774894
scalar SlicingScenario.node[10].veinsmobility maxSpeed 11.108151985975
scalar SlicingScenario.node[10].veinsmobility totalDistance 976.54906166545
scalar SlicingScenario.node[10].veinsmobility totalCO2Emission 78.584980128587
scalar SlicingScenario.rsu[0].appl idVeh 49
scalar SlicingScenario.rsu[0].appl receivedEntMsgB 0
scalar SlicingScenario.rsu[0].appl generatedEntMsgB 450
scalar SlicingScenario.node[11].appl generatedWSMs 0
scalar SlicingScenario.node[11].appl receivedWSMs 0
scalar SlicingScenario.node[11].appl generatedBSMs 45
scalar SlicingScenario.node[11].appl receivedBSMs 918
scalar SlicingScenario.node[11].appl generatedWSAs 0
scalar SlicingScenario.node[11].appl receivedWSAs 0
scalar SlicingScenario.node[11].appl generatedWSAs 0
scalar SlicingScenario.node[11].appl receivedWSAs 0
scalar SlicingScenario.node[11].appl generatedEntMsgA 0
scalar SlicingScenario.node[11].appl receivedEntMsgA 75
scalar SlicingScenario.node[11].appl generatedEntMsgB 0
scalar SlicingScenario.node[11].appl receivedEntMsgB 0
scalar SlicingScenario.node[11].nic.phy80211p busyTime 0.1299792920354
scalar SlicingScenario.node[11].nic.mac1609_4 ReceivedUnicastPackets 0
scalar SlicingScenario.node[11].nic.mac1609_4 ReceivedBroadcasts 4190
scalar SlicingScenario.node[11].nic.mac1609_4 SentPackets 45
scalar SlicingScenario.node[11].nic.mac1609_4 SentAcknowledgements 0
scalar SlicingScenario.node[11].nic.mac1609_4 SNIRLostPackets 0
scalar SlicingScenario.node[11].nic.mac1609_4 RXTXLostPackets 0
scalar SlicingScenario.node[11].nic.mac1609_4 TotalLostPackets 0
scalar SlicingScenario.node[11].nic.mac1609_4 DroppedPacketsInMac 0
scalar SlicingScenario.node[11].nic.mac1609_4 TooLittleTime 0
scalar SlicingScenario.node[11].nic.mac1609_4 TimesIntoBackoff 45
scalar SlicingScenario.node[11].nic.mac1609_4 SlotsBackoff 79
scalar SlicingScenario.node[11].nic.mac1609_4 NumInternalContention 0
scalar SlicingScenario.node[11].nic.mac1609_4 totalBusyTime 5.879789
scalar SlicingScenario.node[11].veinsmobility startTime 11.2
scalar SlicingScenario.node[11].veinsmobility totalTime 44.8
scalar SlicingScenario.node[11].veinsmobility stopTime 56.4
scalar SlicingScenario.node[11].veinsmobility minSpeed 10.910230599428
scalar SlicingScenario.node[11].veinsmobility maxSpeed 11.107714508977
scalar SlicingScenario.node[11].veinsmobility totalDistance 976.98095304503
scalar SlicingScenario.node[11].veinsmobility totalCO2Emission 78.968347226503
scalar SlicingScenario.node[12].appl generatedWSMs 0
scalar SlicingScenario.node[12].appl receivedWSMs 0
scalar SlicingScenario.node[12].appl generatedBSMs 45
scalar SlicingScenario.node[12].appl receivedBSMs 994
scalar SlicingScenario.node[12].appl generatedWSAs 0
scalar SlicingScenario.node[12].appl receivedWSAs 0
scalar SlicingScenario.node[12].appl generatedWSAs 0
scalar SlicingScenario.node[12].appl receivedWSAs 0
scalar SlicingScenario.node[12].appl generatedEntMsgA 0
scalar SlicingScenario.node[12].appl receivedEntMsgA 0
scalar SlicingScenario.node[12].appl generatedEntMsgB 0
scalar SlicingScenario.node[12].appl receivedEntMsgB 227
scalar SlicingScenario.node[12].nic.phy80211p busyTime 0.13586194690265
scalar SlicingScenario.node[12].nic.mac1609_4 ReceivedUnicastPackets 0
scalar SlicingScenario.node[12].nic.mac1609_4 ReceivedBroadcasts 4409
scalar SlicingScenario.node[12].nic.mac1609_4 SentPackets 45
scalar SlicingScenario.node[12].nic.mac1609_4 SentAcknowledgements 0
scalar SlicingScenario.node[12].nic.mac1609_4 SNIRLostPackets 0
scalar SlicingScenario.node[12].nic.mac1609_4 RXTXLostPackets 0
scalar SlicingScenario.node[12].nic.mac1609_4 TotalLostPackets 0
scalar SlicingScenario.node[12].nic.mac1609_4 DroppedPacketsInMac 0
scalar SlicingScenario.node[12].nic.mac1609_4 TooLittleTime 0
scalar SlicingScenario.node[12].nic.mac1609_4 TimesIntoBackoff 45
scalar SlicingScenario.node[12].nic.mac1609_4 SlotsBackoff 67
scalar SlicingScenario.node[12].nic.mac1609_4 NumInternalContention 0
scalar SlicingScenario.node[12].nic.mac1609_4 totalBusyTime 6.145685
scalar SlicingScenario.node[12].veinsmobility startTime 12.4
scalar SlicingScenario.node[12].veinsmobility totalTime 44.8
scalar SlicingScenario.node[12].veinsmobility stopTime 57.6
scalar SlicingScenario.node[12].veinsmobility minSpeed 10.910395442126
scalar SlicingScenario.node[12].veinsmobility maxSpeed 11.10314659196
scalar SlicingScenario.node[12].veinsmobility totalDistance 976.47178388065
scalar SlicingScenario.node[12].veinsmobility totalCO2Emission 78.912601861799
scalar SlicingScenario.rsu[0].appl idVeh 61
scalar SlicingScenario.rsu[0].appl receivedEntMsgA 0
scalar SlicingScenario.rsu[0].appl generatedEntMsgA 128
scalar SlicingScenario.rsu[0].appl idVeh 67
scalar SlicingScenario.rsu[0].appl receivedEntMsgA 0
scalar SlicingScenario.rsu[0].appl generatedEntMsgA 128
scalar SlicingScenario.node[13].appl generatedWSMs 0
scalar SlicingScenario.node[13].appl receivedWSMs 0
scalar SlicingScenario.node[13].appl generatedBSMs 45
scalar SlicingScenario.node[13].appl receivedBSMs 985
scalar SlicingScenario.node[13].appl generatedWSAs 0
scalar SlicingScenario.node[13].appl receivedWSAs 0
scalar SlicingScenario.node[13].appl generatedWSAs 0
scalar SlicingScenario.node[13].appl receivedWSAs 0
scalar SlicingScenario.node[13].appl generatedEntMsgA 0
scalar SlicingScenario.node[13].appl receivedEntMsgA 77
scalar SlicingScenario.node[13].appl generatedEntMsgB 0
scalar SlicingScenario.node[13].appl receivedEntMsgB 0
scalar SlicingScenario.node[13].nic.phy80211p busyTime 0.13510530973451
scalar SlicingScenario.node[13].nic.mac1609_4 ReceivedUnicastPackets 0
scalar SlicingScenario.node[13].nic.mac1609_4 ReceivedBroadcasts 4388
scalar SlicingScenario.node[13].nic.mac1609_4 SentPackets 45
scalar SlicingScenario.node[13].nic.mac1609_4 SentAcknowledgements 0
scalar SlicingScenario.node[13].nic.mac1609_4 SNIRLostPackets 0
scalar SlicingScenario.node[13].nic.mac1609_4 RXTXLostPackets 0
scalar SlicingScenario.node[13].nic.mac1609_4 TotalLostPackets 0
scalar SlicingScenario.node[13].nic.mac1609_4 DroppedPacketsInMac 0
scalar SlicingScenario.node[13].nic.mac1609_4 TooLittleTime 0
scalar SlicingScenario.node[13].nic.mac1609_4 TimesIntoBackoff 45
scalar SlicingScenario.node[13].nic.mac1609_4 SlotsBackoff 75
scalar SlicingScenario.node[13].nic.mac1609_4 NumInternalContention 0
scalar SlicingScenario.node[13].nic.mac1609_4 totalBusyTime 6.115820321683
scalar SlicingScenario.node[13].veinsmobility startTime 13.2
scalar SlicingScenario.node[13].veinsmobility totalTime 44.8
scalar SlicingScenario.node[13].veinsmobility stopTime 58.4
scalar SlicingScenario.node[13].veinsmobility minSpeed 10.913883973323
scalar SlicingScenario.node[13].veinsmobility maxSpeed 11.105084594982
scalar SlicingScenario.node[13].veinsmobility totalDistance 977.63300136734
scalar SlicingScenario.node[13].veinsmobility totalCO2Emission 79.011252112056
scalar SlicingScenario.rsu[0].appl idVeh 73
scalar SlicingScenario.rsu[0].appl receivedEntMsgB 0
scalar SlicingScenario.rsu[0].appl generatedEntMsgB 405
scalar SlicingScenario.node[14].appl generatedWSMs 0
scalar SlicingScenario.node[14].appl receivedWSMs 0
scalar SlicingScenario.node[14].appl generatedBSMs 45
scalar SlicingScenario.node[14].appl receivedBSMs 1055
scalar SlicingScenario.node[14].appl generatedWSAs 0
scalar SlicingScenario.node[14].appl receivedWSAs 0
scalar SlicingScenario.node[14].appl generatedWSAs 0
scalar SlicingScenario.node[14].appl receivedWSAs 0
scalar SlicingScenario.node[14].appl generatedEntMsgA 0
scalar SlicingScenario.node[14].appl receivedEntMsgA 0
scalar SlicingScenario.node[14].appl generatedEntMsgB 0
scalar SlicingScenario.node[14].appl receivedEntMsgB 209
scalar SlicingScenario.node[14].nic.phy80211p busyTime 0.13931734513274
scalar SlicingScenario.node[14].nic.mac1609_4 ReceivedUnicastPackets 0
scalar SlicingScenario.node[14].nic.mac1609_4 ReceivedBroadcasts 4567
scalar SlicingScenario.node[14].nic.mac1609_4 SentPackets 45
scalar SlicingScenario.node[14].nic.mac1609_4 SentAcknowledgements 0
scalar SlicingScenario.node[14].nic.mac1609_4 SNIRLostPackets 0
scalar SlicingScenario.node[14].nic.mac1609_4 RXTXLostPackets 0
scalar SlicingScenario.node[14].nic.mac1609_4 TotalLostPackets 0
scalar SlicingScenario.node[14].nic.mac1609_4 DroppedPacketsInMac 0
scalar SlicingScenario.node[14].nic.mac1609_4 TooLittleTime 0
scalar SlicingScenario.node[14].nic.mac1609_4 TimesIntoBackoff 45
scalar SlicingScenario.node[14].nic.mac1609_4 SlotsBackoff 77
scalar SlicingScenario.node[14].nic.mac1609_4 NumInternalContention 0
scalar SlicingScenario.node[14].nic.mac1609_4 totalBusyTime 6.301869
scalar SlicingScenario.node[14].veinsmobility startTime 14.4
scalar SlicingScenario.node[14].veinsmobility totalTime 44.8
scalar SlicingScenario.node[14].veinsmobility stopTime 59.6
scalar SlicingScenario.node[14].veinsmobility minSpeed 10.911926296437
scalar SlicingScenario.node[14].veinsmobility maxSpeed 11.109926529964
scalar SlicingScenario.node[14].veinsmobility totalDistance 976.7038281768
scalar SlicingScenario.node[14].veinsmobility totalCO2Emission 79.536838094534
scalar SlicingScenario.rsu[0].appl idVeh 79
scalar SlicingScenario.rsu[0].appl receivedEntMsgA 0
scalar SlicingScenario.rsu[0].appl generatedEntMsgA 122
scalar SlicingScenario.node[15].appl generatedWSMs 0
scalar SlicingScenario.node[15].appl receivedWSMs 0
scalar SlicingScenario.node[15].appl generatedBSMs 45
scalar SlicingScenario.node[15].appl receivedBSMs 1044
scalar SlicingScenario.node[15].appl generatedWSAs 0
scalar SlicingScenario.node[15].appl receivedWSAs 0
scalar SlicingScenario.node[15].appl generatedWSAs 0
scalar SlicingScenario.node[15].appl receivedWSAs 0
scalar SlicingScenario.node[15].appl generatedEntMsgA 0
scalar SlicingScenario.node[15].appl receivedEntMsgA 71
scalar SlicingScenario.node[15].appl generatedEntMsgB 0
scalar SlicingScenario.node[15].appl receivedEntMsgB 0
scalar SlicingScenario.node[15].nic.phy80211p busyTime 0.13692654867256
scalar SlicingScenario.node[15].nic.mac1609_4 ReceivedUnicastPackets 0
scalar SlicingScenario.node[15].nic.mac1609_4 ReceivedBroadcasts 4497
scalar SlicingScenario.node[15].nic.mac1609_4 SentPackets 45
scalar SlicingScenario.node[15].nic.mac1609_4 SentAcknowledgements 0
scalar SlicingScenario.node[15].nic.mac1609_4 SNIRLostPackets 0
scalar SlicingScenario.node[15].nic.mac1609_4 RXTXLostPackets 0
scalar SlicingScenario.node[15].nic.mac1609_4 TotalLostPackets 0
scalar SlicingScenario.node[15].nic.mac1609_4 DroppedPacketsInMac 0
scalar SlicingScenario.node[15].nic.mac1609_4 TooLittleTime 0
scalar SlicingScenario.node[15].nic.mac1609_4 TimesIntoBackoff 45
scalar SlicingScenario.node[15].nic.mac1609_4 SlotsBackoff 65
scalar SlicingScenario.node[15].nic.mac1609_4 NumInternalContention 0
scalar SlicingScenario.node[15].nic.mac1609_4 totalBusyTime 6.193805
scalar SlicingScenario.node[15].veinsmobility startTime 15.2
scalar SlicingScenario.node[15].veinsmobility totalTime 44.8
scalar SlicingScenario.node[15].veinsmobility stopTime 60.4
scalar SlicingScenario.node[15].veinsmobility minSpeed 10.91504511497
scalar SlicingScenario.node[15].veinsmobility maxSpeed 11.109014174705
scalar SlicingScenario.node[15].veinsmobility totalDistance 978.29763827009
scalar SlicingScenario.node[15].veinsmobility totalCO2Emission 78.68515215598
scalar SlicingScenario.node[16].appl generatedWSMs 0
scalar SlicingScenario.node[16].appl receivedWSMs 0
scalar SlicingScenario.node[16].appl generatedBSMs 45
scalar SlicingScenario.node[16].appl receivedBSMs 1076
scalar SlicingScenario.node[16].appl generatedWSAs 0
scalar SlicingScenario.node[16].appl receivedWSAs 0
scalar SlicingScenario.node[16].appl generatedWSAs 0
scalar SlicingScenario.node[16].appl receivedWSAs 0
scalar SlicingScenario.node[16].appl generatedEntMsgA 0
scalar SlicingScenario.node[16].appl receivedEntMsgA 0
scalar SlicingScenario.node[16].appl generatedEntMsgB 0
scalar SlicingScenario.node[16].appl receivedEntMsgB 176
scalar SlicingScenario.node[16].nic.phy80211p busyTime 0.14037557522124
scalar SlicingScenario.node[16].nic.mac1609_4 ReceivedUnicastPackets 0
scalar SlicingScenario.node[16].nic.mac1609_4 ReceivedBroadcasts 4613
scalar SlicingScenario.node[16].nic.mac1609_4 SentPackets 45
scalar SlicingScenario.node[16].nic.mac1609_4 SentAcknowledgements 0
scalar SlicingScenario.node[16].nic.mac1609_4 SNIRLostPackets 0
scalar SlicingScenario.node[16].nic.mac1609_4 RXTXLostPackets 0
scalar SlicingScenario.node[16].nic.mac1609_4 TotalLostPackets 0
scalar SlicingScenario.node[16].nic.mac1609_4 DroppedPacketsInMac 0
scalar SlicingScenario.node[16].nic.mac1609_4 TooLittleTime 0
scalar SlicingScenario.node[16].nic.mac1609_4 TimesIntoBackoff 90
scalar SlicingScenario.node[16].nic.mac1609_4 SlotsBackoff 75
scalar SlicingScenario.node[16].nic.mac1609_4 NumInternalContention 0
scalar SlicingScenario.node[16].nic.mac1609_4 totalBusyTime 6.353919804414
scalar SlicingScenario.node[16].veinsmobility startTime 16.4
scalar SlicingScenario.node[16].veinsmobility totalTime 44.8
scalar SlicingScenario.node[16].veinsmobility stopTime 61.6
scalar SlicingScenario.node[16].veinsmobility minSpeed 10.913860065294
scalar SlicingScenario.node[16].veinsmobility maxSpeed 11.109987886008
scalar SlicingScenario.node[16].veinsmobility totalDistance 977.0678442876
scalar SlicingScenario.node[16].veinsmobility totalCO2Emission 79.358603413184
scalar SlicingScenario.rsu[0].appl idVeh 85
scalar SlicingScenario.rsu[0].appl receivedEntMsgB 0
scalar SlicingScenario.rsu[0].appl generatedEntMsgB 373
scalar SlicingScenario.rsu[0].appl idVeh 91
scalar SlicingScenario.rsu[0].appl receivedEntMsgA 0
scalar SlicingScenario.rsu[0].appl generatedEntMsgA 118
scalar SlicingScenario.node[17].appl generatedWSMs 0
scalar SlicingScenario.node[17].appl receivedWSMs 0
scalar SlicingScenario.node[17].appl generatedBSMs 45
scalar SlicingScenario.node[17].appl receivedBSMs 1103
scalar SlicingScenario.node[17].appl generatedWSAs 0
scalar SlicingScenario.node[17].appl receivedWSAs 0
scalar SlicingScenario.node[17].appl generatedWSAs 0
scalar SlicingScenario.node[17].appl receivedWSAs 0
scalar SlicingScenario.node[17].appl generatedEntMsgA 0
scalar SlicingScenario.node[17].appl receivedEntMsgA 62
scalar SlicingScenario.node[17].appl generatedEntMsgB 0
scalar SlicingScenario.node[17].appl receivedEntMsgB 0
scalar SlicingScenario.node[17].nic.phy80211p busyTime 0.14344371681416
scalar SlicingScenario.node[17].nic.mac1609_4 ReceivedUnicastPackets 0
scalar SlicingScenario.node[17].nic.mac1609_4 ReceivedBroadcasts 4721
scalar SlicingScenario.node[17].nic.mac1609_4 SentPackets 45
scalar SlicingScenario.node[17].nic.mac1609_4 SentAcknowledgements 0
scalar SlicingScenario.node[17].nic.mac1609_4 SNIRLostPackets 0
scalar SlicingScenario.node[17].nic.mac1609_4 RXTXLostPackets 0
scalar SlicingScenario.node[17].nic.mac1609_4 TotalLostPackets 0
scalar SlicingScenario.node[17].nic.mac1609_4 DroppedPacketsInMac 0
scalar SlicingScenario.node[17].nic.mac1609_4 TooLittleTime 0
scalar SlicingScenario.node[17].nic.mac1609_4 TimesIntoBackoff 45
scalar SlicingScenario.node[17].nic.mac1609_4 SlotsBackoff 69
scalar SlicingScenario.node[17].nic.mac1609_4 NumInternalContention 0
scalar SlicingScenario.node[17].nic.mac1609_4 totalBusyTime 6.488381
scalar SlicingScenario.node[17].veinsmobility startTime 17.2
scalar SlicingScenario.node[17].veinsmobility totalTime 44.8
scalar SlicingScenario.node[17].veinsmobility stopTime 62.4
scalar SlicingScenario.node[17].veinsmobility minSpeed 10.912193573723
scalar SlicingScenario.node[17].veinsmobility maxSpeed 11.109890805827
scalar SlicingScenario.node[17].veinsmobility totalDistance 978.34593663017
scalar SlicingScenario.node[17].veinsmobility totalCO2Emission 78.41260175322
scalar SlicingScenario.node[18].appl generatedWSMs 0
scalar SlicingScenario.node[18].appl receivedWSMs 0
scalar SlicingScenario.node[18].appl generatedBSMs 45
scalar SlicingScenario.node[18].appl receivedBSMs 1130
scalar SlicingScenario.node[18].appl generatedWSAs 0
scalar SlicingScenario.node[18].appl receivedWSAs 0
scalar SlicingScenario.node[18].appl generatedWSAs 0
scalar SlicingScenario.node[18].appl receivedWSAs 0
scalar SlicingScenario.node[18].appl generatedEntMsgA 0
scalar SlicingScenario.node[18].appl receivedEntMsgA 60
scalar SlicingScenario.node[18].appl generatedEntMsgB 0
scalar SlicingScenario.node[18].appl receivedEntMsgB 0
scalar SlicingScenario.node[18].nic.phy80211p busyTime 0.14442973451327
scalar SlicingScenario.node[18].nic.mac1609_4 ReceivedUnicastPackets 0
scalar SlicingScenario.node[18].nic.mac1609_4 ReceivedBroadcasts 4779
scalar SlicingScenario.node[18].nic.mac1609_4 SentPackets 45
scalar SlicingScenario.node[18].nic.mac1609_4 SentAcknowledgements 0
scalar SlicingScenario.node[18].nic.mac1609_4 SNIRLostPackets 0
scalar SlicingScenario.node[18].nic.mac1609_4 RXTXLostPackets 0
scalar SlicingScenario.node[18].nic.mac1609_4 TotalLostPackets 0
scalar SlicingScenario.node[18].nic.mac1609_4 DroppedPacketsInMac 0
scalar SlicingScenario.node[18].nic.mac1609_4 TooLittleTime 0
scalar SlicingScenario.node[18].nic.mac1609_4 TimesIntoBackoff 90
scalar SlicingScenario.node[18].nic.mac1609_4 SlotsBackoff 64
scalar SlicingScenario.node[18].nic.mac1609_4 NumInternalContention 0
scalar SlicingScenario.node[18].nic.mac1609_4 totalBusyTime 6.534120452264
scalar SlicingScenario.node[18].veinsmobility startTime 18.4
scalar SlicingScenario.node[18].veinsmobility totalTime 44.8
scalar SlicingScenario.node[18].veinsmobility stopTime 63.6
scalar SlicingScenario.node[18].veinsmobility minSpeed 10.911771669229
scalar SlicingScenario.node[18].veinsmobility maxSpeed 11.109587073689
scalar SlicingScenario.node[18].veinsmobility totalDistance 976.80946622816
scalar SlicingScenario.node[18].veinsmobility totalCO2Emission 79.088970380857
scalar SlicingScenario.rsu[0].appl idVeh 97
scalar SlicingScenario.rsu[0].appl receivedEntMsgB 0
scalar SlicingScenario.rsu[0].appl generatedEntMsgB 351
scalar SlicingScenario.rsu[0].appl idVeh 103
scalar SlicingScenario.rsu[0].appl receivedEntMsgA 0
scalar SlicingScenario.rsu[0].appl generatedEntMsgA 109
scalar SlicingScenario.node[19].appl generatedWSMs 0
scalar SlicingScenario.node[19].appl receivedWSMs 0
scalar SlicingScenario.node[19].appl generatedBSMs 45
scalar SlicingScenario.node[19].appl receivedBSMs 1128
scalar SlicingScenario.node[19].appl generatedWSAs 0
scalar SlicingScenario.node[19].appl receivedWSAs 0
scalar SlicingScenario.node[19].appl generatedWSAs 0
scalar SlicingScenario.node[19].appl receivedWSAs 0
scalar SlicingScenario.node[19].appl generatedEntMsgA 0
scalar SlicingScenario.node[19].appl receivedEntMsgA 60
scalar SlicingScenario.node[19].appl generatedEntMsgB 0
scalar SlicingScenario.node[19].appl receivedEntMsgB 0
scalar SlicingScenario.node[19].nic.phy80211p busyTime 0.14784796460177
scalar SlicingScenario.node[19].nic.mac1609_4 ReceivedUnicastPackets 0
scalar SlicingScenario.node[19].nic.mac1609_4 ReceivedBroadcasts 4863
scalar SlicingScenario.node[19].nic.mac1609_4 SentPackets 45
scalar SlicingScenario.node[19].nic.mac1609_4 SentAcknowledgements 0
scalar SlicingScenario.node[19].nic.mac1609_4 SNIRLostPackets 0
scalar SlicingScenario.node[19].nic.mac1609_4 RXTXLostPackets 0
scalar SlicingScenario.node[19].nic.mac1609_4 TotalLostPackets 0
scalar SlicingScenario.node[19].nic.mac1609_4 DroppedPacketsInMac 0
scalar SlicingScenario.node[19].nic.mac1609_4 TooLittleTime 0
scalar SlicingScenario.node[19].nic.mac1609_4 TimesIntoBackoff 90
scalar SlicingScenario.node[19].nic.mac1609_4 SlotsBackoff 68
scalar SlicingScenario.node[19].nic.mac1609_4 NumInternalContention 0
scalar SlicingScenario.node[19].nic.mac1609_4 totalBusyTime 6.692584591326
scalar SlicingScenario.node[19].veinsmobility startTime 19.2
scalar SlicingScenario.node[19].veinsmobility totalTime 44.8
scalar SlicingScenario.node[19].veinsmobility stopTime 64.4
scalar SlicingScenario.node[19].veinsmobility minSpeed 10.910294684991
scalar SlicingScenario.node[19].veinsmobility maxSpeed 11.103545342237
scalar SlicingScenario.node[19].veinsmobility totalDistance 977.91900067083
scalar SlicingScenario.node[19].veinsmobility totalCO2Emission 78.066717270596
scalar SlicingScenario.rsu[0].appl idVeh 109
scalar SlicingScenario.rsu[0].appl receivedEntMsgB 0
scalar SlicingScenario.rsu[0].appl generatedEntMsgB 315
scalar SlicingScenario.node[20].appl generatedWSMs 0
scalar SlicingScenario.node[20].appl receivedWSMs 0
scalar SlicingScenario.node[20].appl generatedBSMs 45
scalar SlicingScenario.node[20].appl receivedBSMs 1130
scalar SlicingScenario.node[20].appl generatedWSAs 0
scalar SlicingScenario.node[20].appl receivedWSAs 0
scalar SlicingScenario.node[20].appl generatedWSAs 0
scalar SlicingScenario.node[20].appl receivedWSAs 0
scalar SlicingScenario.node[20].appl generatedEntMsgA 0
scalar SlicingScenario.node[20].appl receivedEntMsgA 54
scalar SlicingScenario.node[20].appl generatedEntMsgB 0
scalar SlicingScenario.node[20].appl receivedEntMsgB 0
scalar SlicingScenario.node[20].nic.phy80211p busyTime 0.15091575221239
scalar SlicingScenario.node[20].nic.mac1609_4 ReceivedUnicastPackets 0
scalar SlicingScenario.node[20].nic.mac1609_4 ReceivedBroadcasts 4940
scalar SlicingScenario.node[20].nic.mac1609_4 SentPackets 45
scalar SlicingScenario.node[20].nic.mac1609_4 SentAcknowledgements 0
scalar SlicingScenario.node[20].nic.mac1609_4 SNIRLostPackets 0
scalar SlicingScenario.node[20].nic.mac1609_4 RXTXLostPackets 0
scalar SlicingScenario.node[20].nic.mac1609_4 TotalLostPackets 0
scalar SlicingScenario.node[20].nic.mac1609_4 DroppedPacketsInMac 0
scalar SlicingScenario.node[20].nic.mac1609_4 TooLittleTime 0
scalar SlicingScenario.node[20].nic.mac1609_4 TimesIntoBackoff 45
scalar SlicingScenario.node[20].nic.mac1609_4 SlotsBackoff 63
scalar SlicingScenario.node[20].nic.mac1609_4 NumInternalContention 0
scalar SlicingScenario.node[20].nic.mac1609_4 totalBusyTime 6.828109896954
scalar SlicingScenario.node[20].veinsmobility startTime 20.4
scalar SlicingScenario.node[20].veinsmobility totalTime 44.8
scalar SlicingScenario.node[20].veinsmobility stopTime 65.6
scalar SlicingScenario.node[20].veinsmobility minSpeed 10.910785745773
scalar SlicingScenario.node[20].veinsmobility maxSpeed 11.10922799496
scalar SlicingScenario.node[20].veinsmobility totalDistance 977.2898503721
scalar SlicingScenario.node[20].veinsmobility totalCO2Emission 78.952907658606
scalar SlicingScenario.rsu[0].appl idVeh 115
scalar SlicingScenario.rsu[0].appl receivedEntMsgA 0
scalar SlicingScenario.rsu[0].appl generatedEntMsgA 104
scalar SlicingScenario.node[21].appl generatedWSMs 0
scalar SlicingScenario.node[21].appl receivedWSMs 0
scalar SlicingScenario.node[21].appl generatedBSMs 46
scalar SlicingScenario.node[21].appl receivedBSMs 1124
scalar SlicingScenario.node[21].appl generatedWSAs 0
scalar SlicingScenario.node[21].appl receivedWSAs 0
scalar SlicingScenario.node[21].appl generatedWSAs 0
scalar SlicingScenario.node[21].appl receivedWSAs 0
scalar SlicingScenario.node[21].appl generatedEntMsgA 0
scalar SlicingScenario.node[21].appl receivedEntMsgA 54
scalar SlicingScenario.node[21].appl generatedEntMsgB 0
scalar SlicingScenario.node[21].appl receivedEntMsgB 0
scalar SlicingScenario.node[21].nic.phy80211p busyTime 0.15162389380531
scalar SlicingScenario.node[21].nic.mac1609_4 ReceivedUnicastPackets 0
scalar SlicingScenario.node[21].nic.mac1609_4 ReceivedBroadcasts 4953
scalar SlicingScenario.node[21].nic.mac1609_4 SentPackets 46
scalar SlicingScenario.node[21].nic.mac1609_4 SentAcknowledgements 0
scalar SlicingScenario.node[21].nic.mac1609_4 SNIRLostPackets 2
scalar SlicingScenario.node[21].nic.mac1609_4 RXTXLostPackets 0
scalar SlicingScenario.node[21].nic.mac1609_4 TotalLostPackets 2
scalar SlicingScenario.node[21].nic.mac1609_4 DroppedPacketsInMac 0
scalar SlicingScenario.node[21].nic.mac1609_4 TooLittleTime 0
scalar SlicingScenario.node[21].nic.mac1609_4 TimesIntoBackoff 46
scalar SlicingScenario.node[21].nic.mac1609_4 SlotsBackoff 73
scalar SlicingScenario.node[21].nic.mac1609_4 NumInternalContention 0
scalar SlicingScenario.node[21].nic.mac1609_4 totalBusyTime 6.85823
scalar SlicingScenario.node[21].veinsmobility startTime 21.2
scalar SlicingScenario.node[21].veinsmobility totalTime 44.8
scalar SlicingScenario.node[21].veinsmobility stopTime 66.4
scalar SlicingScenario.node[21].veinsmobility minSpeed 10.912182313241
scalar SlicingScenario.node[21].veinsmobility maxSpeed 11.108962076008
scalar SlicingScenario.node[21].veinsmobility totalDistance 975.74010809522
scalar SlicingScenario.node[21].veinsmobility totalCO2Emission 78.463876633319
scalar SlicingScenario.rsu[0].appl idVeh 121
scalar SlicingScenario.rsu[0].appl receivedEntMsgA 0
scalar SlicingScenario.rsu[0].appl generatedEntMsgA 96
scalar SlicingScenario.node[22].appl generatedWSMs 0
scalar SlicingScenario.node[22].appl receivedWSMs 0
scalar SlicingScenario.node[22].appl generatedBSMs 45
scalar SlicingScenario.node[22].appl receivedBSMs 1099
scalar SlicingScenario.node[22].appl generatedWSAs 0
scalar SlicingScenario.node[22].appl receivedWSAs 0
scalar SlicingScenario.node[22].appl generatedWSAs 0
scalar SlicingScenario.node[22].appl receivedWSAs 0
scalar SlicingScenario.node[22].appl generatedEntMsgA 0
scalar SlicingScenario.node[22].appl receivedEntMsgA 0
scalar SlicingScenario.node[22].appl generatedEntMsgB 0
scalar SlicingScenario.node[22].appl receivedEntMsgB 127
scalar SlicingScenario.node[22].nic.phy80211p busyTime 0.15367734513274
scalar SlicingScenario.node[22].nic.mac1609_4 ReceivedUnicastPackets 0
scalar SlicingScenario.node[22].nic.mac1609_4 ReceivedBroadcasts 4980
scalar SlicingScenario.node[22].nic.mac1609_4 SentPackets 45
scalar SlicingScenario.node[22].nic.mac1609_4 SentAcknowledgements 0
scalar SlicingScenario.node[22].nic.mac1609_4 SNIRLostPackets 5
scalar SlicingScenario.node[22].nic.mac1609_4 RXTXLostPackets 0
scalar SlicingScenario.node[22].nic.mac1609_4 TotalLostPackets 5
scalar SlicingScenario.node[22].nic.mac1609_4 DroppedPacketsInMac 0
scalar SlicingScenario.node[22].nic.mac1609_4 TooLittleTime 0
scalar SlicingScenario.node[22].nic.mac1609_4 TimesIntoBackoff 45
scalar SlicingScenario.node[22].nic.mac1609_4 SlotsBackoff 64
scalar SlicingScenario.node[22].nic.mac1609_4 NumInternalContention 0
scalar SlicingScenario.node[22].nic.mac1609_4 totalBusyTime 6.954060620357
scalar SlicingScenario.node[22].veinsmobility startTime 22.4
scalar SlicingScenario.node[22].veinsmobility totalTime 44.8
scalar SlicingScenario.node[22].veinsmobility stopTime 67.6
scalar SlicingScenario.node[22].veinsmobility minSpeed 10.910329024019
scalar SlicingScenario.node[22].veinsmobility maxSpeed 11.107149698017
scalar SlicingScenario.node[22].veinsmobility totalDistance 976.54099364348
scalar SlicingScenario.node[22].veinsmobility totalCO2Emission 78.562366815651
scalar SlicingScenario.rsu[0].appl idVeh 127
scalar SlicingScenario.rsu[0].appl receivedEntMsgA 0
scalar SlicingScenario.rsu[0].appl generatedEntMsgA 96
scalar SlicingScenario.node[23].appl generatedWSMs 0
scalar SlicingScenario.node[23].appl receivedWSMs 0
scalar SlicingScenario.node[23].appl generatedBSMs 45
scalar SlicingScenario.node[23].appl receivedBSMs 1119
scalar SlicingScenario.node[23].appl generatedWSAs 0
scalar SlicingScenario.node[23].appl receivedWSAs 0
scalar SlicingScenario.node[23].appl generatedWSAs 0
scalar SlicingScenario.node[23].appl receivedWSAs 0
scalar SlicingScenario.node[23].appl generatedEntMsgA 0
scalar SlicingScenario.node[23].appl receivedEntMsgA 0
scalar SlicingScenario.node[23].appl generatedEntMsgB 0
scalar SlicingScenario.node[23].appl receivedEntMsgB 115
scalar SlicingScenario.node[23].nic.phy80211p busyTime 0.15253787610619
scalar SlicingScenario.node[23].nic.mac1609_4 ReceivedUnicastPackets 0
scalar SlicingScenario.node[23].nic.mac1609_4 ReceivedBroadcasts 4966
scalar SlicingScenario.node[23].nic.mac1609_4 SentPackets 45
scalar SlicingScenario.node[23].nic.mac1609_4 SentAcknowledgements 0
scalar SlicingScenario.node[23].nic.mac1609_4 SNIRLostPackets 5
scalar SlicingScenario.node[23].nic.mac1609_4 RXTXLostPackets 0
scalar SlicingScenario.node[23].nic.mac1609_4 TotalLostPackets 5
scalar SlicingScenario.node[23].nic.mac1609_4 DroppedPacketsInMac 0
scalar SlicingScenario.node[23].nic.mac1609_4 TooLittleTime 0
scalar SlicingScenario.node[23].nic.mac1609_4 TimesIntoBackoff 45
scalar SlicingScenario.node[23].nic.mac1609_4 SlotsBackoff 54
scalar SlicingScenario.node[23].nic.mac1609_4 NumInternalContention 0
scalar SlicingScenario.node[23].nic.mac1609_4 totalBusyTime 6.902675611461
scalar SlicingScenario.node[23].veinsmobility startTime 23.2
scalar SlicingScenario.node[23].veinsmobility totalTime 44.8
scalar SlicingScenario.node[23].veinsmobility stopTime 68.4
scalar SlicingScenario.node[23].veinsmobility minSpeed 10.911422661869
scalar SlicingScenario.node[23].veinsmobility maxSpeed 11.108901037825
scalar SlicingScenario.node[23].veinsmobility totalDistance 976.79167221082
scalar SlicingScenario.node[23].veinsmobility totalCO2Emission 79.065706122353
scalar SlicingScenario.rsu[0].appl idVeh 133
scalar SlicingScenario.rsu[0].appl receivedEntMsgA 0
scalar SlicingScenario.rsu[0].appl generatedEntMsgA 91
scalar SlicingScenario.node[24].appl generatedWSMs 0
scalar SlicingScenario.node[24].appl receivedWSMs 0
scalar SlicingScenario.node[24].appl generatedBSMs 46
scalar SlicingScenario.node[24].appl receivedBSMs 1123
scalar SlicingScenario.node[24].appl generatedWSAs 0
scalar SlicingScenario.node[24].appl receivedWSAs 0
scalar SlicingScenario.node[24].appl generatedWSAs 0
scalar SlicingScenario.node[24].appl receivedWSAs 0
scalar SlicingScenario.node[24].appl generatedEntMsgA 0
scalar SlicingScenario.node[24].appl receivedEntMsgA 0
scalar SlicingScenario.node[24].appl generatedEntMsgB 0
scalar SlicingScenario.node[24].appl receivedEntMsgB 119
scalar SlicingScenario.node[24].nic.phy80211p busyTime 0.15363575221239
scalar SlicingScenario.node[24].nic.mac1609_4 ReceivedUnicastPackets 0
scalar SlicingScenario.node[24].nic.mac1609_4 ReceivedBroadcasts 4999
scalar SlicingScenario.node[24].nic.mac1609_4 SentPackets 46
scalar SlicingScenario.node[24].nic.mac1609_4 SentAcknowledgements 0
scalar SlicingScenario.node[24].nic.mac1609_4 SNIRLostPackets 5
scalar SlicingScenario.node[24].nic.mac1609_4 RXTXLostPackets 0
scalar SlicingScenario.node[24].nic.mac1609_4 TotalLostPackets 5
scalar SlicingScenario.node[24].nic.mac1609_4 DroppedPacketsInMac 0
scalar SlicingScenario.node[24].nic.mac1609_4 TooLittleTime 0
scalar SlicingScenario.node[24].nic.mac1609_4 TimesIntoBackoff 46
scalar SlicingScenario.node[24].nic.mac1609_4 SlotsBackoff 60
scalar SlicingScenario.node[24].nic.mac1609_4 NumInternalContention 0
scalar SlicingScenario.node[24].nic.mac1609_4 totalBusyTime 6.95345827686
scalar SlicingScenario.node[24].veinsmobility startTime 24.4
scalar SlicingScenario.node[24].veinsmobility totalTime 44.8
scalar SlicingScenario.node[24].veinsmobility stopTime 69.6
scalar SlicingScenario.node[24].veinsmobility minSpeed 10.91825181515
scalar SlicingScenario.node[24].veinsmobility maxSpeed 11.107592755361
scalar SlicingScenario.node[24].veinsmobility totalDistance 977.6052941485
scalar SlicingScenario.node[24].veinsmobility totalCO2Emission 78.507567664882
scalar SlicingScenario.node[25].appl generatedWSMs 0
scalar SlicingScenario.node[25].appl receivedWSMs 0
scalar SlicingScenario.node[25].appl generatedBSMs 45
scalar SlicingScenario.node[25].appl receivedBSMs 1111
scalar SlicingScenario.node[25].appl generatedWSAs 0
scalar SlicingScenario.node[25].appl receivedWSAs 0
scalar SlicingScenario.node[25].appl generatedWSAs 0
scalar SlicingScenario.node[25].appl receivedWSAs 0
scalar SlicingScenario.node[25].appl generatedEntMsgA 0
scalar SlicingScenario.node[25].appl receivedEntMsgA 33
scalar SlicingScenario.node[25].appl generatedEntMsgB 0
scalar SlicingScenario.node[25].appl receivedEntMsgB 0
scalar SlicingScenario.node[25].nic.phy80211p busyTime 0.15260884955752
scalar SlicingScenario.node[25].nic.mac1609_4 ReceivedUnicastPackets 0
scalar SlicingScenario.node[25].nic.mac1609_4 ReceivedBroadcasts 4966
scalar SlicingScenario.node[25].nic.mac1609_4 SentPackets 45
scalar SlicingScenario.node[25].nic.mac1609_4 SentAcknowledgements 0
scalar SlicingScenario.node[25].nic.mac1609_4 SNIRLostPackets 14
scalar SlicingScenario.node[25].nic.mac1609_4 RXTXLostPackets 0
scalar SlicingScenario.node[25].nic.mac1609_4 TotalLostPackets 14
scalar SlicingScenario.node[25].nic.mac1609_4 DroppedPacketsInMac 0
scalar SlicingScenario.node[25].nic.mac1609_4 TooLittleTime 0
scalar SlicingScenario.node[25].nic.mac1609_4 TimesIntoBackoff 45
scalar SlicingScenario.node[25].nic.mac1609_4 SlotsBackoff 69
scalar SlicingScenario.node[25].nic.mac1609_4 NumInternalContention 0
scalar SlicingScenario.node[25].nic.mac1609_4 totalBusyTime 6.901917
scalar SlicingScenario.node[25].veinsmobility startTime 25.2
scalar SlicingScenario.node[25].veinsmobility totalTime 44.8
scalar SlicingScenario.node[25].veinsmobility stopTime 70.4
scalar SlicingScenario.node[25].veinsmobility minSpeed 10.913193939012
scalar SlicingScenario.node[25].veinsmobility maxSpeed 11.109723329023
scalar SlicingScenario.node[25].veinsmobility totalDistance 976.11037895755
scalar SlicingScenario.node[25].veinsmobility totalCO2Emission 78.858385207901
scalar SlicingScenario.rsu[0].appl idVeh 139
scalar SlicingScenario.rsu[0].appl receivedEntMsgA 0
scalar SlicingScenario.rsu[0].appl generatedEntMsgA 94
scalar SlicingScenario.node[26].appl generatedWSMs 0
scalar SlicingScenario.node[26].appl receivedWSMs 0
scalar SlicingScenario.node[26].appl generatedBSMs 46
scalar SlicingScenario.node[26].appl receivedBSMs 1142
scalar SlicingScenario.node[26].appl generatedWSAs 0
scalar SlicingScenario.node[26].appl receivedWSAs 0
scalar SlicingScenario.node[26].appl generatedWSAs 0
scalar SlicingScenario.node[26].appl receivedWSAs 0
scalar SlicingScenario.node[26].appl generatedEntMsgA 0
scalar SlicingScenario.node[26].appl receivedEntMsgA 0
scalar SlicingScenario.node[26].appl generatedEntMsgB 0
scalar SlicingScenario.node[26].appl receivedEntMsgB 100
scalar SlicingScenario.node[26].nic.phy80211p busyTime 0.15165663716814
scalar SlicingScenario.node[26].nic.mac1609_4 ReceivedUnicastPackets 0
scalar SlicingScenario.node[26].nic.mac1609_4 ReceivedBroadcasts 4977
scalar SlicingScenario.node[26].nic.mac1609_4 SentPackets 46
scalar SlicingScenario.node[26].nic.mac1609_4 SentAcknowledgements 0
scalar SlicingScenario.node[26].nic.mac1609_4 SNIRLostPackets 7
scalar SlicingScenario.node[26].nic.mac1609_4 RXTXLostPackets 0
scalar SlicingScenario.node[26].nic.mac1609_4 TotalLostPackets 7
scalar SlicingScenario.node[26].nic.mac1609_4 DroppedPacketsInMac 0
scalar SlicingScenario.node[26].nic.mac1609_4 TooLittleTime 0
scalar SlicingScenario.node[26].nic.mac1609_4 TimesIntoBackoff 46
scalar SlicingScenario.node[26].nic.mac1609_4 SlotsBackoff 68
scalar SlicingScenario.node[26].nic.mac1609_4 NumInternalContention 0
scalar SlicingScenario.node[26].nic.mac1609_4 totalBusyTime 6.870206918896
scalar SlicingScenario.node[26].veinsmobility startTime 26.4
scalar SlicingScenario.node[26].veinsmobility totalTime 44.8
scalar SlicingScenario.node[26].veinsmobility stopTime 71.6
scalar SlicingScenario.node[26].veinsmobility minSpeed 10.910836941181
scalar SlicingScenario.node[26].veinsmobility maxSpeed 11.105662255352
scalar SlicingScenario.node[26].veinsmobility totalDistance 975.26270191752
scalar SlicingScenario.node[26].veinsmobility totalCO2Emission 79.270480530263
scalar SlicingScenario.rsu[0].appl idVeh 145
scalar SlicingScenario.rsu[0].appl receivedEntMsgB 0
scalar SlicingScenario.rsu[0].appl generatedEntMsgB 257
scalar SlicingScenario.node[27].appl generatedWSMs 0
scalar SlicingScenario.node[27].appl receivedWSMs 0
scalar SlicingScenario.node[27].appl generatedBSMs 45
scalar SlicingScenario.node[27].appl receivedBSMs 1115
scalar SlicingScenario.node[27].appl generatedWSAs 0
scalar SlicingScenario.node[27].appl receivedWSAs 0
scalar SlicingScenario.node[27].appl generatedWSAs 0
scalar SlicingScenario.node[27].appl receivedWSAs 0
scalar SlicingScenario.node[27].appl generatedEntMsgA 0
scalar SlicingScenario.node[27].appl receivedEntMsgA 29
scalar SlicingScenario.node[27].appl generatedEntMsgB 0
scalar SlicingScenario.node[27].appl receivedEntMsgB 0
scalar SlicingScenario.node[27].nic.phy80211p busyTime 0.15162283185841
scalar SlicingScenario.node[27].nic.mac1609_4 ReceivedUnicastPackets 0
scalar SlicingScenario.node[27].nic.mac1609_4 ReceivedBroadcasts 4946
scalar SlicingScenario.node[27].nic.mac1609_4 SentPackets 45
scalar SlicingScenario.node[27].nic.mac1609_4 SentAcknowledgements 0
scalar SlicingScenario.node[27].nic.mac1609_4 SNIRLostPackets 7
scalar SlicingScenario.node[27].nic.mac1609_4 RXTXLostPackets 0
scalar SlicingScenario.node[27].nic.mac1609_4 TotalLostPackets 7
scalar SlicingScenario.node[27].nic.mac1609_4 DroppedPacketsInMac 0
scalar SlicingScenario.node[27].nic.mac1609_4 TooLittleTime 0
scalar SlicingScenario.node[27].nic.mac1609_4 TimesIntoBackoff 45
scalar SlicingScenario.node[27].nic.mac1609_4 SlotsBackoff 66
scalar SlicingScenario.node[27].nic.mac1609_4 NumInternalContention 0
scalar SlicingScenario.node[27].nic.mac1609_4 totalBusyTime 6.868657900396
scalar SlicingScenario.node[27].veinsmobility startTime 27.2
scalar SlicingScenario.node[27].veinsmobility totalTime 44.8
scalar SlicingScenario.node[27].veinsmobility stopTime 72.4
scalar SlicingScenario.node[27].veinsmobility minSpeed 10.91014440245
scalar SlicingScenario.node[27].veinsmobility maxSpeed 11.109819343165
scalar SlicingScenario.node[27].veinsmobility totalDistance 977.4715181785
scalar SlicingScenario.node[27].veinsmobility totalCO2Emission 78.860760713385
scalar SlicingScenario.rsu[0].appl idVeh 151
scalar SlicingScenario.rsu[0].appl receivedEntMsgB 0
scalar SlicingScenario.rsu[0].appl generatedEntMsgB 248
scalar SlicingScenario.node[28].appl generatedWSMs 0
scalar SlicingScenario.node[28].appl receivedWSMs 0
scalar SlicingScenario.node[28].appl generatedBSMs 45
scalar SlicingScenario.node[28].appl receivedBSMs 1122
scalar SlicingScenario.node[28].appl generatedWSAs 0
scalar SlicingScenario.node[28].appl receivedWSAs 0
scalar SlicingScenario.node[28].appl generatedWSAs 0
scalar SlicingScenario.node[28].appl receivedWSAs 0
scalar SlicingScenario.node[28].appl generatedEntMsgA 0
scalar SlicingScenario.node[28].appl receivedEntMsgA 24
scalar SlicingScenario.node[28].appl generatedEntMsgB 0
scalar SlicingScenario.node[28].appl receivedEntMsgB 0
scalar SlicingScenario.node[28].nic.phy80211p busyTime 0.14960530973451
scalar SlicingScenario.node[28].nic.mac1609_4 ReceivedUnicastPackets 0
scalar SlicingScenario.node[28].nic.mac1609_4 ReceivedBroadcasts 4897
scalar SlicingScenario.node[28].nic.mac1609_4 SentPackets 45
scalar SlicingScenario.node[28].nic.mac1609_4 SentAcknowledgements 0
scalar SlicingScenario.node[28].nic.mac1609_4 SNIRLostPackets 7
scalar SlicingScenario.node[28].nic.mac1609_4 RXTXLostPackets 0
scalar SlicingScenario.node[28].nic.mac1609_4 TotalLostPackets 7
scalar SlicingScenario.node[28].nic.mac1609_4 DroppedPacketsInMac 0
scalar SlicingScenario.node[28].nic.mac1609_4 TooLittleTime 0
scalar SlicingScenario.node[28].nic.mac1609_4 TimesIntoBackoff 45
scalar SlicingScenario.node[28].nic.mac1609_4 SlotsBackoff 62
scalar SlicingScenario.node[28].nic.mac1609_4 NumInternalContention 0
scalar SlicingScenario.node[28].nic.mac1609_4 totalBusyTime 6.766885
scalar SlicingScenario.node[28].veinsmobility startTime 28.4
scalar SlicingScenario.node[28].veinsmobility totalTime 44.8
scalar SlicingScenario.node[28].veinsmobility stopTime 73.6
scalar SlicingScenario.node[28].veinsmobility minSpeed 10.912525909338
scalar SlicingScenario.node[28].veinsmobility maxSpeed 11.109776763376
scalar SlicingScenario.node[28].veinsmobility totalDistance 977.53063293323
scalar SlicingScenario.node[28].veinsmobility totalCO2Emission 78.887241353629
scalar SlicingScenario.rsu[0].appl idVeh 157
scalar SlicingScenario.rsu[0].appl receivedEntMsgB 0
scalar SlicingScenario.rsu[0].appl generatedEntMsgB 244
scalar SlicingScenario.node[29].appl generatedWSMs 0
scalar SlicingScenario.node[29].appl receivedWSMs 0
scalar SlicingScenario.node[29].appl generatedBSMs 45
scalar SlicingScenario.node[29].appl receivedBSMs 1123
scalar SlicingScenario.node[29].appl generatedWSAs 0
scalar SlicingScenario.node[29].appl receivedWSAs 0
scalar SlicingScenario.node[29].appl generatedWSAs 0
scalar SlicingScenario.node[29].appl receivedWSAs 0
scalar SlicingScenario.node[29].appl generatedEntMsgA 0
scalar SlicingScenario.node[29].appl receivedEntMsgA 0
scalar SlicingScenario.node[29].appl generatedEntMsgB 0
scalar SlicingScenario.node[29].appl receivedEntMsgB 59
scalar SlicingScenario.node[29].nic.phy80211p busyTime 0.15010017699115
scalar SlicingScenario.node[29].nic.mac1609_4 ReceivedUnicastPackets 0
scalar SlicingScenario.node[29].nic.mac1609_4 ReceivedBroadcasts 4921
scalar SlicingScenario.node[29].nic.mac1609_4 SentPackets 45
scalar SlicingScenario.node[29].nic.mac1609_4 SentAcknowledgements 0
scalar SlicingScenario.node[29].nic.mac1609_4 SNIRLostPackets 4
scalar SlicingScenario.node[29].nic.mac1609_4 RXTXLostPackets 0
scalar SlicingScenario.node[29].nic.mac1609_4 TotalLostPackets 4
scalar SlicingScenario.node[29].nic.mac1609_4 DroppedPacketsInMac 0
scalar SlicingScenario.node[29].nic.mac1609_4 TooLittleTime 0
scalar SlicingScenario.node[29].nic.mac1609_4 TimesIntoBackoff 45
scalar SlicingScenario.node[29].nic.mac1609_4 SlotsBackoff 76
scalar SlicingScenario.node[29].nic.mac1609_4 NumInternalContention 0
scalar SlicingScenario.node[29].nic.mac1609_4 totalBusyTime 6.789253
scalar SlicingScenario.node[29].veinsmobility startTime 29.2
scalar SlicingScenario.node[29].veinsmobility totalTime 44.8
scalar SlicingScenario.node[29].veinsmobility stopTime 74.4
scalar SlicingScenario.node[29].veinsmobility minSpeed 10.913935592808
scalar SlicingScenario.node[29].veinsmobility maxSpeed 11.108936991999
scalar SlicingScenario.node[29].veinsmobility totalDistance 977.32686176834
scalar SlicingScenario.node[29].veinsmobility totalCO2Emission 78.888270820551
scalar SlicingScenario.rsu[0].appl idVeh 163
scalar SlicingScenario.rsu[0].appl receivedEntMsgA 0
scalar SlicingScenario.rsu[0].appl generatedEntMsgA 76
scalar SlicingScenario.node[30].appl generatedWSMs 0
scalar SlicingScenario.node[30].appl receivedWSMs 0
scalar SlicingScenario.node[30].appl generatedBSMs 45
scalar SlicingScenario.node[30].appl receivedBSMs 1129
scalar SlicingScenario.node[30].appl generatedWSAs 0
scalar SlicingScenario.node[30].appl receivedWSAs 0
scalar SlicingScenario.node[30].appl generatedWSAs 0
scalar SlicingScenario.node[30].appl receivedWSAs 0
scalar SlicingScenario.node[30].appl generatedEntMsgA 0
scalar SlicingScenario.node[30].appl receivedEntMsgA 0
scalar SlicingScenario.node[30].appl generatedEntMsgB 0
scalar SlicingScenario.node[30].appl receivedEntMsgB 56
scalar SlicingScenario.node[30].nic.phy80211p busyTime 0.15132814159292
scalar SlicingScenario.node[30].nic.mac1609_4 ReceivedUnicastPackets 0
scalar SlicingScenario.node[30].nic.mac1609_4 ReceivedBroadcasts 4951
scalar SlicingScenario.node[30].nic.mac1609_4 SentPackets 45
scalar SlicingScenario.node[30].nic.mac1609_4 SentAcknowledgements 0
scalar SlicingScenario.node[30].nic.mac1609_4 SNIRLostPackets 0
scalar SlicingScenario.node[30].nic.mac1609_4 RXTXLostPackets 0
scalar SlicingScenario.node[30].nic.mac1609_4 TotalLostPackets 0
scalar SlicingScenario.node[30].nic.mac1609_4 DroppedPacketsInMac 0
scalar SlicingScenario.node[30].nic.mac1609_4 TooLittleTime 0
scalar SlicingScenario.node[30].nic.mac1609_4 TimesIntoBackoff 65
scalar SlicingScenario.node[30].nic.mac1609_4 SlotsBackoff 98
scalar SlicingScenario.node[30].nic.mac1609_4 NumInternalContention 0
scalar SlicingScenario.node[30].nic.mac1609_4 totalBusyTime 6.84987797127
scalar SlicingScenario.node[30].veinsmobility startTime 30.4
scalar SlicingScenario.node[30].veinsmobility totalTime 44.8
scalar SlicingScenario.node[30].veinsmobility stopTime 75.6
scalar SlicingScenario.node[30].veinsmobility minSpeed 10.912523333067
scalar SlicingScenario.node[30].veinsmobility maxSpeed 11.108062473815
scalar SlicingScenario.node[30].veinsmobility totalDistance 976.049074437
scalar SlicingScenario.node[30].veinsmobility totalCO2Emission 79.055975792759
scalar SlicingScenario.rsu[0].appl idVeh 169
scalar SlicingScenario.rsu[0].appl receivedEntMsgB 0
scalar SlicingScenario.rsu[0].appl generatedEntMsgB 224
scalar SlicingScenario.rsu[0].appl idVeh 175
scalar SlicingScenario.rsu[0].appl receivedEntMsgA 0
scalar SlicingScenario.rsu[0].appl generatedEntMsgA 69
scalar SlicingScenario.node[31].appl generatedWSMs 0
scalar SlicingScenario.node[31].appl receivedWSMs 0
scalar SlicingScenario.node[31].appl generatedBSMs 45
scalar SlicingScenario.node[31].appl receivedBSMs 1125
scalar SlicingScenario.node[31].appl generatedWSAs 0
scalar SlicingScenario.node[31].appl receivedWSAs 0
scalar SlicingScenario.node[31].appl generatedWSAs 0
scalar SlicingScenario.node[31].appl receivedWSAs 0
scalar SlicingScenario.node[31].appl generatedEntMsgA 0
scalar SlicingScenario.node[31].appl receivedEntMsgA 23
scalar SlicingScenario.node[31].appl generatedEntMsgB 0
scalar SlicingScenario.node[31].appl receivedEntMsgB 0
scalar SlicingScenario.node[31].nic.phy80211p busyTime 0.15125575221239
scalar SlicingScenario.node[31].nic.mac1609_4 ReceivedUnicastPackets 0
scalar SlicingScenario.node[31].nic.mac1609_4 ReceivedBroadcasts 4941
scalar SlicingScenario.node[31].nic.mac1609_4 SentPackets 45
scalar SlicingScenario.node[31].nic.mac1609_4 SentAcknowledgements 0
scalar SlicingScenario.node[31].nic.mac1609_4 SNIRLostPackets 0
scalar SlicingScenario.node[31].nic.mac1609_4 RXTXLostPackets 0
scalar SlicingScenario.node[31].nic.mac1609_4 TotalLostPackets 0
scalar SlicingScenario.node[31].nic.mac1609_4 DroppedPacketsInMac 0
scalar SlicingScenario.node[31].nic.mac1609_4 TooLittleTime 0
scalar SlicingScenario.node[31].nic.mac1609_4 TimesIntoBackoff 45
scalar SlicingScenario.node[31].nic.mac1609_4 SlotsBackoff 62
scalar SlicingScenario.node[31].nic.mac1609_4 NumInternalContention 0
scalar SlicingScenario.node[31].nic.mac1609_4 totalBusyTime 6.841485
scalar SlicingScenario.node[31].veinsmobility startTime 31.2
scalar SlicingScenario.node[31].veinsmobility totalTime 44.8
scalar SlicingScenario.node[31].veinsmobility stopTime 76.4
scalar SlicingScenario.node[31].veinsmobility minSpeed 10.912527723555
scalar SlicingScenario.node[31].veinsmobility maxSpeed 11.109258045387
scalar SlicingScenario.node[31].veinsmobility totalDistance 976.71950861847
scalar SlicingScenario.node[31].veinsmobility totalCO2Emission 79.223049745384
scalar SlicingScenario.node[32].appl generatedWSMs 0
scalar SlicingScenario.node[32].appl receivedWSMs 0
scalar SlicingScenario.node[32].appl generatedBSMs 45
scalar SlicingScenario.node[32].appl receivedBSMs 1151
scalar SlicingScenario.node[32].appl generatedWSAs 0
scalar SlicingScenario.node[32].appl receivedWSAs 0
scalar SlicingScenario.node[32].appl generatedWSAs 0
scalar SlicingScenario.node[32].appl receivedWSAs 0
scalar SlicingScenario.node[32].appl generatedEntMsgA 0
scalar SlicingScenario.node[32].appl receivedEntMsgA 0
scalar SlicingScenario.node[32].appl generatedEntMsgB 0
scalar SlicingScenario.node[32].appl receivedEntMsgB 39
scalar SlicingScenario.node[32].nic.phy80211p busyTime 0.14953132743363
scalar SlicingScenario.node[32].nic.mac1609_4 ReceivedUnicastPackets 0
scalar SlicingScenario.node[32].nic.mac1609_4 ReceivedBroadcasts 4924
scalar SlicingScenario.node[32].nic.mac1609_4 SentPackets 45
scalar SlicingScenario.node[32].nic.mac1609_4 SentAcknowledgements 0
scalar SlicingScenario.node[32].nic.mac1609_4 SNIRLostPackets 0
scalar SlicingScenario.node[32].nic.mac1609_4 RXTXLostPackets 0
scalar SlicingScenario.node[32].nic.mac1609_4 TotalLostPackets 0
scalar SlicingScenario.node[32].nic.mac1609_4 DroppedPacketsInMac 0
scalar SlicingScenario.node[32].nic.mac1609_4 TooLittleTime 0
scalar SlicingScenario.node[32].nic.mac1609_4 TimesIntoBackoff 45
scalar SlicingScenario.node[32].nic.mac1609_4 SlotsBackoff 60
scalar SlicingScenario.node[32].nic.mac1609_4 NumInternalContention 0
scalar SlicingScenario.node[32].nic.mac1609_4 totalBusyTime 6.763541
scalar SlicingScenario.node[32].veinsmobility startTime 32.4
scalar SlicingScenario.node[32].veinsmobility totalTime 44.8
scalar SlicingScenario.node[32].veinsmobility stopTime 77.6
scalar SlicingScenario.node[32].veinsmobility minSpeed 10.912250199672
scalar SlicingScenario.node[32].veinsmobility maxSpeed 11.106153587895
scalar SlicingScenario.node[32].veinsmobility totalDistance 978.13976788582
scalar SlicingScenario.node[32].veinsmobility totalCO2Emission 78.146152437193
scalar SlicingScenario.rsu[0].appl idVeh 181
scalar SlicingScenario.rsu[0].appl receivedEntMsgA 0
scalar SlicingScenario.rsu[0].appl generatedEntMsgA 63
scalar SlicingScenario.node[33].appl generatedWSMs 0
scalar SlicingScenario.node[33].appl receivedWSMs 0
scalar SlicingScenario.node[33].appl generatedBSMs 46
scalar SlicingScenario.node[33].appl receivedBSMs 1162
scalar SlicingScenario.node[33].appl generatedWSAs 0
scalar SlicingScenario.node[33].appl receivedWSAs 0
scalar SlicingScenario.node[33].appl generatedWSAs 0
scalar SlicingScenario.node[33].appl receivedWSAs 0
scalar SlicingScenario.node[33].appl generatedEntMsgA 0
scalar SlicingScenario.node[33].appl receivedEntMsgA 0
scalar SlicingScenario.node[33].appl generatedEntMsgB 0
scalar SlicingScenario.node[33].appl receivedEntMsgB 47
scalar SlicingScenario.node[33].nic.phy80211p busyTime 0.14812353982301
scalar SlicingScenario.node[33].nic.mac1609_4 ReceivedUnicastPackets 0
scalar SlicingScenario.node[33].nic.mac1609_4 ReceivedBroadcasts 4905
scalar SlicingScenario.node[33].nic.mac1609_4 SentPackets 46
scalar SlicingScenario.node[33].nic.mac1609_4 SentAcknowledgements 0
scalar SlicingScenario.node[33].nic.mac1609_4 SNIRLostPackets 0
scalar SlicingScenario.node[33].nic.mac1609_4 RXTXLostPackets 0
scalar SlicingScenario.node[33].nic.mac1609_4 TotalLostPackets 0
scalar SlicingScenario.node[33].nic.mac1609_4 DroppedPacketsInMac 0
scalar SlicingScenario.node[33].nic.mac1609_4 TooLittleTime 0
scalar SlicingScenario.node[33].nic.mac1609_4 TimesIntoBackoff 46
scalar SlicingScenario.node[33].nic.mac1609_4 SlotsBackoff 77
scalar SlicingScenario.node[33].nic.mac1609_4 NumInternalContention 0
scalar SlicingScenario.node[33].nic.mac1609_4 totalBusyTime 6.700014
scalar SlicingScenario.node[33].veinsmobility startTime 33.2
scalar SlicingScenario.node[33].veinsmobility totalTime 44.8
scalar SlicingScenario.node[33].veinsmobility stopTime 78.4
scalar SlicingScenario.node[33].veinsmobility minSpeed 10.910401199283
scalar SlicingScenario.node[33].veinsmobility maxSpeed 11.109059348134
scalar SlicingScenario.node[33].veinsmobility totalDistance 976.23481956168
scalar SlicingScenario.node[33].veinsmobility totalCO2Emission 79.531147158554
scalar SlicingScenario.rsu[0].appl idVeh 187
scalar SlicingScenario.rsu[0].appl receivedEntMsgB 0
scalar SlicingScenario.rsu[0].appl generatedEntMsgB 176
scalar SlicingScenario.rsu[0].appl idVeh 193
scalar SlicingScenario.rsu[0].appl receivedEntMsgB 0
scalar SlicingScenario.rsu[0].appl generatedEntMsgB 164
scalar SlicingScenario.node[34].appl generatedWSMs 0
scalar SlicingScenario.node[34].appl receivedWSMs 0
scalar SlicingScenario.node[34].appl generatedBSMs 45
scalar SlicingScenario.node[34].appl receivedBSMs 1130
scalar SlicingScenario.node[34].appl generatedWSAs 0
scalar SlicingScenario.node[34].appl receivedWSAs 0
scalar SlicingScenario.node[34].appl generatedWSAs 0
scalar SlicingScenario.node[34].appl receivedWSAs 0
scalar SlicingScenario.node[34].appl generatedEntMsgA 0
scalar SlicingScenario.node[34].appl receivedEntMsgA 19
scalar SlicingScenario.node[34].appl generatedEntMsgB 0
scalar SlicingScenario.node[34].appl receivedEntMsgB 0
scalar SlicingScenario.node[34].nic.phy80211p busyTime 0.14459805309734
scalar SlicingScenario.node[34].nic.mac1609_4 ReceivedUnicastPackets 0
scalar SlicingScenario.node[34].nic.mac1609_4 ReceivedBroadcasts 4782
scalar SlicingScenario.node[34].nic.mac1609_4 SentPackets 45
scalar SlicingScenario.node[34].nic.mac1609_4 SentAcknowledgements 0
scalar SlicingScenario.node[34].nic.mac1609_4 SNIRLostPackets 0
scalar SlicingScenario.node[34].nic.mac1609_4 RXTXLostPackets 0
scalar SlicingScenario.node[34].nic.mac1609_4 TotalLostPackets 0
scalar SlicingScenario.node[34].nic.mac1609_4 DroppedPacketsInMac 0
scalar SlicingScenario.node[34].nic.mac1609_4 TooLittleTime 0
scalar SlicingScenario.node[34].nic.mac1609_4 TimesIntoBackoff 45
scalar SlicingScenario.node[34].nic.mac1609_4 SlotsBackoff 56
scalar SlicingScenario.node[34].nic.mac1609_4 NumInternalContention 0
scalar SlicingScenario.node[34].nic.mac1609_4 totalBusyTime 6.542605090223
scalar SlicingScenario.node[34].veinsmobility startTime 34.4
scalar SlicingScenario.node[34].veinsmobility totalTime 44.8
scalar SlicingScenario.node[34].veinsmobility stopTime 79.6
scalar SlicingScenario.node[34].veinsmobility minSpeed 10.915789158354
scalar SlicingScenario.node[34].veinsmobility maxSpeed 11.104852444809
scalar SlicingScenario.node[34].veinsmobility totalDistance 978.8610250478
scalar SlicingScenario.node[34].veinsmobility totalCO2Emission 78.681615246965
scalar SlicingScenario.rsu[0].appl idVeh 199
scalar SlicingScenario.rsu[0].appl receivedEntMsgA 0
scalar SlicingScenario.rsu[0].appl generatedEntMsgA 57
scalar SlicingScenario.node[35].appl generatedWSMs 0
scalar SlicingScenario.node[35].appl receivedWSMs 0
scalar SlicingScenario.node[35].appl generatedBSMs 45
scalar SlicingScenario.node[35].appl receivedBSMs 1127
scalar SlicingScenario.node[35].appl generatedWSAs 0
scalar SlicingScenario.node[35].appl receivedWSAs 0
scalar SlicingScenario.node[35].appl generatedWSAs 0
scalar SlicingScenario.node[35].appl receivedWSAs 0
scalar SlicingScenario.node[35].appl generatedEntMsgA 0
scalar SlicingScenario.node[35].appl receivedEntMsgA 16
scalar SlicingScenario.node[35].appl generatedEntMsgB 0
scalar SlicingScenario.node[35].appl receivedEntMsgB 0
scalar SlicingScenario.node[35].nic.phy80211p busyTime 0.14292407079646
scalar SlicingScenario.node[35].nic.mac1609_4 ReceivedUnicastPackets 0
scalar SlicingScenario.node[35].nic.mac1609_4 ReceivedBroadcasts 4741
scalar SlicingScenario.node[35].nic.mac1609_4 SentPackets 45
[...]
scalar SlicingScenario.node[91].nic.mac1609_4 NumInternalContention 0
scalar SlicingScenario.node[91].nic.mac1609_4 totalBusyTime 0.140821
scalar SlicingScenario.node[91].veinsmobility startTime 91.2
scalar SlicingScenario.node[91].veinsmobility totalTime 44.8
scalar SlicingScenario.node[91].veinsmobility stopTime 136.4
scalar SlicingScenario.node[91].veinsmobility minSpeed 10.910710092904
scalar SlicingScenario.node[91].veinsmobility maxSpeed 11.109297860917
scalar SlicingScenario.node[91].veinsmobility totalDistance 978.75351016227
scalar SlicingScenario.node[91].veinsmobility totalCO2Emission 79.008760175085
scalar SlicingScenario.node[92].appl generatedWSMs 0
scalar SlicingScenario.node[92].appl receivedWSMs 0
scalar SlicingScenario.node[92].appl generatedBSMs 45
scalar SlicingScenario.node[92].appl receivedBSMs 742
scalar SlicingScenario.node[92].appl generatedWSAs 0
scalar SlicingScenario.node[92].appl receivedWSAs 0
scalar SlicingScenario.node[92].appl generatedWSAs 0
scalar SlicingScenario.node[92].appl receivedWSAs 0
scalar SlicingScenario.node[92].appl generatedEntMsgA 0
scalar SlicingScenario.node[92].appl receivedEntMsgA 0
scalar SlicingScenario.node[92].appl generatedEntMsgB 0
scalar SlicingScenario.node[92].appl receivedEntMsgB 0
scalar SlicingScenario.node[92].nic.phy80211p busyTime 0.0029709734513275
scalar SlicingScenario.node[92].nic.mac1609_4 ReceivedUnicastPackets 0
scalar SlicingScenario.node[92].nic.mac1609_4 ReceivedBroadcasts 768
scalar SlicingScenario.node[92].nic.mac1609_4 SentPackets 45
scalar SlicingScenario.node[92].nic.mac1609_4 SentAcknowledgements 0
scalar SlicingScenario.node[92].nic.mac1609_4 SNIRLostPackets 72
scalar SlicingScenario.node[92].nic.mac1609_4 RXTXLostPackets 0
scalar SlicingScenario.node[92].nic.mac1609_4 TotalLostPackets 72
scalar SlicingScenario.node[92].nic.mac1609_4 DroppedPacketsInMac 0
scalar SlicingScenario.node[92].nic.mac1609_4 TooLittleTime 0
scalar SlicingScenario.node[92].nic.mac1609_4 TimesIntoBackoff 90
scalar SlicingScenario.node[92].nic.mac1609_4 SlotsBackoff 66
scalar SlicingScenario.node[92].nic.mac1609_4 NumInternalContention 0
scalar SlicingScenario.node[92].nic.mac1609_4 totalBusyTime 0.135269
scalar SlicingScenario.node[92].veinsmobility startTime 92.4
scalar SlicingScenario.node[92].veinsmobility totalTime 44.8
scalar SlicingScenario.node[92].veinsmobility stopTime 137.6
scalar SlicingScenario.node[92].veinsmobility minSpeed 10.910333990622
scalar SlicingScenario.node[92].veinsmobility maxSpeed 11.106332871728
scalar SlicingScenario.node[92].veinsmobility totalDistance 975.22865660983
scalar SlicingScenario.node[92].veinsmobility totalCO2Emission 78.05901573519
scalar SlicingScenario.node[93].appl generatedWSMs 0
scalar SlicingScenario.node[93].appl receivedWSMs 0
scalar SlicingScenario.node[93].appl generatedBSMs 46
scalar SlicingScenario.node[93].appl receivedBSMs 782
scalar SlicingScenario.node[93].appl generatedWSAs 0
scalar SlicingScenario.node[93].appl receivedWSAs 0
scalar SlicingScenario.node[93].appl generatedWSAs 0
scalar SlicingScenario.node[93].appl receivedWSAs 0
scalar SlicingScenario.node[93].appl generatedEntMsgA 0
scalar SlicingScenario.node[93].appl receivedEntMsgA 0
scalar SlicingScenario.node[93].appl generatedEntMsgB 0
scalar SlicingScenario.node[93].appl receivedEntMsgB 0
scalar SlicingScenario.node[93].nic.phy80211p busyTime 0.0019262608695653
scalar SlicingScenario.node[93].nic.mac1609_4 ReceivedUnicastPackets 0
scalar SlicingScenario.node[93].nic.mac1609_4 ReceivedBroadcasts 782
scalar SlicingScenario.node[93].nic.mac1609_4 SentPackets 46
scalar SlicingScenario.node[93].nic.mac1609_4 SentAcknowledgements 0
scalar SlicingScenario.node[93].nic.mac1609_4 SNIRLostPackets 70
scalar SlicingScenario.node[93].nic.mac1609_4 RXTXLostPackets 0
scalar SlicingScenario.node[93].nic.mac1609_4 TotalLostPackets 70
scalar SlicingScenario.node[93].nic.mac1609_4 DroppedPacketsInMac 0
scalar SlicingScenario.node[93].nic.mac1609_4 TooLittleTime 0
scalar SlicingScenario.node[93].nic.mac1609_4 TimesIntoBackoff 46
scalar SlicingScenario.node[93].nic.mac1609_4 SlotsBackoff 65
scalar SlicingScenario.node[93].nic.mac1609_4 NumInternalContention 0
scalar SlicingScenario.node[93].nic.mac1609_4 totalBusyTime 0.089798
scalar SlicingScenario.node[93].veinsmobility startTime 93.2
scalar SlicingScenario.node[93].veinsmobility totalTime 45.6
scalar SlicingScenario.node[93].veinsmobility stopTime 139.2
scalar SlicingScenario.node[93].veinsmobility minSpeed 7.8979440271883
scalar SlicingScenario.node[93].veinsmobility maxSpeed 11.102901418405
scalar SlicingScenario.node[93].veinsmobility totalDistance 975.60031131101
scalar SlicingScenario.node[93].veinsmobility totalCO2Emission 86.731743015519
scalar SlicingScenario.node[94].appl generatedWSMs 0
scalar SlicingScenario.node[94].appl receivedWSMs 0
scalar SlicingScenario.node[94].appl generatedBSMs 45
scalar SlicingScenario.node[94].appl receivedBSMs 708
scalar SlicingScenario.node[94].appl generatedWSAs 0
scalar SlicingScenario.node[94].appl receivedWSAs 0
scalar SlicingScenario.node[94].appl generatedWSAs 0
scalar SlicingScenario.node[94].appl receivedWSAs 0
scalar SlicingScenario.node[94].appl generatedEntMsgA 0
scalar SlicingScenario.node[94].appl receivedEntMsgA 0
scalar SlicingScenario.node[94].appl generatedEntMsgB 0
scalar SlicingScenario.node[94].appl receivedEntMsgB 0
scalar SlicingScenario.node[94].nic.phy80211p busyTime 0.0017854867256637
scalar SlicingScenario.node[94].nic.mac1609_4 ReceivedUnicastPackets 0
scalar SlicingScenario.node[94].nic.mac1609_4 ReceivedBroadcasts 708
scalar SlicingScenario.node[94].nic.mac1609_4 SentPackets 45
scalar SlicingScenario.node[94].nic.mac1609_4 SentAcknowledgements 0
scalar SlicingScenario.node[94].nic.mac1609_4 SNIRLostPackets 68
scalar SlicingScenario.node[94].nic.mac1609_4 RXTXLostPackets 0
scalar SlicingScenario.node[94].nic.mac1609_4 TotalLostPackets 68
scalar SlicingScenario.node[94].nic.mac1609_4 DroppedPacketsInMac 0
scalar SlicingScenario.node[94].nic.mac1609_4 TooLittleTime 0
scalar SlicingScenario.node[94].nic.mac1609_4 TimesIntoBackoff 45
scalar SlicingScenario.node[94].nic.mac1609_4 SlotsBackoff 55
scalar SlicingScenario.node[94].nic.mac1609_4 NumInternalContention 0
scalar SlicingScenario.node[94].nic.mac1609_4 totalBusyTime 0.081893
scalar SlicingScenario.node[94].veinsmobility startTime 94.4
scalar SlicingScenario.node[94].veinsmobility totalTime 44.8
scalar SlicingScenario.node[94].veinsmobility stopTime 139.6
scalar SlicingScenario.node[94].veinsmobility minSpeed 10.9126857886
scalar SlicingScenario.node[94].veinsmobility maxSpeed 11.108367446288
scalar SlicingScenario.node[94].veinsmobility totalDistance 976.33237108663
scalar SlicingScenario.node[94].veinsmobility totalCO2Emission 79.211732415826
scalar SlicingScenario.rsu[0].appl idVeh 553
scalar SlicingScenario.rsu[0].appl receivedEntMsgB 0
scalar SlicingScenario.rsu[0].appl generatedEntMsgB 0
scalar SlicingScenario.rsu[0].appl idVeh 559
scalar SlicingScenario.rsu[0].appl receivedEntMsgA 0
scalar SlicingScenario.rsu[0].appl generatedEntMsgA 0
scalar SlicingScenario.node[95].appl generatedWSMs 0
scalar SlicingScenario.node[95].appl receivedWSMs 0
scalar SlicingScenario.node[95].appl generatedBSMs 45
scalar SlicingScenario.node[95].appl receivedBSMs 742
scalar SlicingScenario.node[95].appl generatedWSAs 0
scalar SlicingScenario.node[95].appl receivedWSAs 0
scalar SlicingScenario.node[95].appl generatedWSAs 0
scalar SlicingScenario.node[95].appl receivedWSAs 0
scalar SlicingScenario.node[95].appl generatedEntMsgA 0
scalar SlicingScenario.node[95].appl receivedEntMsgA 0
scalar SlicingScenario.node[95].appl generatedEntMsgB 0
scalar SlicingScenario.node[95].appl receivedEntMsgB 0
scalar SlicingScenario.node[95].nic.phy80211p busyTime 0.0016922807017544
scalar SlicingScenario.node[95].nic.mac1609_4 ReceivedUnicastPackets 0
scalar SlicingScenario.node[95].nic.mac1609_4 ReceivedBroadcasts 742
scalar SlicingScenario.node[95].nic.mac1609_4 SentPackets 45
scalar SlicingScenario.node[95].nic.mac1609_4 SentAcknowledgements 0
scalar SlicingScenario.node[95].nic.mac1609_4 SNIRLostPackets 0
scalar SlicingScenario.node[95].nic.mac1609_4 RXTXLostPackets 0
scalar SlicingScenario.node[95].nic.mac1609_4 TotalLostPackets 0
scalar SlicingScenario.node[95].nic.mac1609_4 DroppedPacketsInMac 0
scalar SlicingScenario.node[95].nic.mac1609_4 TooLittleTime 0
scalar SlicingScenario.node[95].nic.mac1609_4 TimesIntoBackoff 45
scalar SlicingScenario.node[95].nic.mac1609_4 SlotsBackoff 80
scalar SlicingScenario.node[95].nic.mac1609_4 NumInternalContention 0
scalar SlicingScenario.node[95].nic.mac1609_4 totalBusyTime 0.081893
scalar SlicingScenario.node[95].veinsmobility startTime 95.2
scalar SlicingScenario.node[95].veinsmobility totalTime 45.2
scalar SlicingScenario.node[95].veinsmobility stopTime 140.8
scalar SlicingScenario.node[95].veinsmobility minSpeed 9.7596542566682
scalar SlicingScenario.node[95].veinsmobility maxSpeed 11.09763182587
scalar SlicingScenario.node[95].veinsmobility totalDistance 976.23301997849
scalar SlicingScenario.node[95].veinsmobility totalCO2Emission 83.718698974211
scalar SlicingScenario.rsu[0].appl idVeh 565
scalar SlicingScenario.rsu[0].appl receivedEntMsgA 0
scalar SlicingScenario.rsu[0].appl generatedEntMsgA 0
scalar SlicingScenario.node[96].appl generatedWSMs 0
scalar SlicingScenario.node[96].appl receivedWSMs 0
scalar SlicingScenario.node[96].appl generatedBSMs 46
scalar SlicingScenario.node[96].appl receivedBSMs 644
scalar SlicingScenario.node[96].appl generatedWSAs 0
scalar SlicingScenario.node[96].appl receivedWSAs 0
scalar SlicingScenario.node[96].appl generatedWSAs 0
scalar SlicingScenario.node[96].appl receivedWSAs 0
scalar SlicingScenario.node[96].appl generatedEntMsgA 0
scalar SlicingScenario.node[96].appl receivedEntMsgA 0
scalar SlicingScenario.node[96].appl generatedEntMsgB 0
scalar SlicingScenario.node[96].appl receivedEntMsgB 0
scalar SlicingScenario.node[96].nic.phy80211p busyTime 0.0016124561403509
scalar SlicingScenario.node[96].nic.mac1609_4 ReceivedUnicastPackets 0
scalar SlicingScenario.node[96].nic.mac1609_4 ReceivedBroadcasts 644
scalar SlicingScenario.node[96].nic.mac1609_4 SentPackets 46
scalar SlicingScenario.node[96].nic.mac1609_4 SentAcknowledgements 0
scalar SlicingScenario.node[96].nic.mac1609_4 SNIRLostPackets 63
scalar SlicingScenario.node[96].nic.mac1609_4 RXTXLostPackets 0
scalar SlicingScenario.node[96].nic.mac1609_4 TotalLostPackets 63
scalar SlicingScenario.node[96].nic.mac1609_4 DroppedPacketsInMac 0
scalar SlicingScenario.node[96].nic.mac1609_4 TooLittleTime 0
scalar SlicingScenario.node[96].nic.mac1609_4 TimesIntoBackoff 92
scalar SlicingScenario.node[96].nic.mac1609_4 SlotsBackoff 78
scalar SlicingScenario.node[96].nic.mac1609_4 NumInternalContention 0
scalar SlicingScenario.node[96].nic.mac1609_4 totalBusyTime 0.075134
scalar SlicingScenario.node[96].veinsmobility startTime 96.4
scalar SlicingScenario.node[96].veinsmobility totalTime 45.2
scalar SlicingScenario.node[96].veinsmobility stopTime 142
scalar SlicingScenario.node[96].veinsmobility minSpeed 8.4951821577447
scalar SlicingScenario.node[96].veinsmobility maxSpeed 11.107838529386
scalar SlicingScenario.node[96].veinsmobility totalDistance 975.86492447165
scalar SlicingScenario.node[96].veinsmobility totalCO2Emission 85.395479854354
scalar SlicingScenario.node[97].appl generatedWSMs 0
scalar SlicingScenario.node[97].appl receivedWSMs 0
scalar SlicingScenario.node[97].appl generatedBSMs 46
scalar SlicingScenario.node[97].appl receivedBSMs 593
scalar SlicingScenario.node[97].appl generatedWSAs 0
scalar SlicingScenario.node[97].appl receivedWSAs 0
scalar SlicingScenario.node[97].appl generatedWSAs 0
scalar SlicingScenario.node[97].appl receivedWSAs 0
scalar SlicingScenario.node[97].appl generatedEntMsgA 0
scalar SlicingScenario.node[97].appl receivedEntMsgA 0
scalar SlicingScenario.node[97].appl generatedEntMsgB 0
scalar SlicingScenario.node[97].appl receivedEntMsgB 0
scalar SlicingScenario.node[97].nic.phy80211p busyTime 0.0015070796460177
scalar SlicingScenario.node[97].nic.mac1609_4 ReceivedUnicastPackets 0
scalar SlicingScenario.node[97].nic.mac1609_4 ReceivedBroadcasts 593
scalar SlicingScenario.node[97].nic.mac1609_4 SentPackets 46
scalar SlicingScenario.node[97].nic.mac1609_4 SentAcknowledgements 0
scalar SlicingScenario.node[97].nic.mac1609_4 SNIRLostPackets 62
scalar SlicingScenario.node[97].nic.mac1609_4 RXTXLostPackets 0
scalar SlicingScenario.node[97].nic.mac1609_4 TotalLostPackets 62
scalar SlicingScenario.node[97].nic.mac1609_4 DroppedPacketsInMac 0
scalar SlicingScenario.node[97].nic.mac1609_4 TooLittleTime 0
scalar SlicingScenario.node[97].nic.mac1609_4 TimesIntoBackoff 46
scalar SlicingScenario.node[97].nic.mac1609_4 SlotsBackoff 72
scalar SlicingScenario.node[97].nic.mac1609_4 NumInternalContention 0
scalar SlicingScenario.node[97].nic.mac1609_4 totalBusyTime 0.069726
scalar SlicingScenario.node[97].veinsmobility startTime 97.2
scalar SlicingScenario.node[97].veinsmobility totalTime 44.8
scalar SlicingScenario.node[97].veinsmobility stopTime 142.4
scalar SlicingScenario.node[97].veinsmobility minSpeed 10.914114812752
scalar SlicingScenario.node[97].veinsmobility maxSpeed 11.106642256947
scalar SlicingScenario.node[97].veinsmobility totalDistance 977.02164174823
scalar SlicingScenario.node[97].veinsmobility totalCO2Emission 78.572964011544
scalar SlicingScenario.rsu[0].appl idVeh 571
scalar SlicingScenario.rsu[0].appl receivedEntMsgA 0
scalar SlicingScenario.rsu[0].appl generatedEntMsgA 0
scalar SlicingScenario.node[98].appl generatedWSMs 0
scalar SlicingScenario.node[98].appl receivedWSMs 0
scalar SlicingScenario.node[98].appl generatedBSMs 45
scalar SlicingScenario.node[98].appl receivedBSMs 550
scalar SlicingScenario.node[98].appl generatedWSAs 0
scalar SlicingScenario.node[98].appl receivedWSAs 0
scalar SlicingScenario.node[98].appl generatedWSAs 0
scalar SlicingScenario.node[98].appl receivedWSAs 0
scalar SlicingScenario.node[98].appl generatedEntMsgA 0
scalar SlicingScenario.node[98].appl receivedEntMsgA 0
scalar SlicingScenario.node[98].appl generatedEntMsgB 0
scalar SlicingScenario.node[98].appl receivedEntMsgB 0
scalar SlicingScenario.node[98].nic.phy80211p busyTime 0.0014035398230089
scalar SlicingScenario.node[98].nic.mac1609_4 ReceivedUnicastPackets 0
scalar SlicingScenario.node[98].nic.mac1609_4 ReceivedBroadcasts 550
scalar SlicingScenario.node[98].nic.mac1609_4 SentPackets 45
scalar SlicingScenario.node[98].nic.mac1609_4 SentAcknowledgements 0
scalar SlicingScenario.node[98].nic.mac1609_4 SNIRLostPackets 60
scalar SlicingScenario.node[98].nic.mac1609_4 RXTXLostPackets 0
scalar SlicingScenario.node[98].nic.mac1609_4 TotalLostPackets 60
scalar SlicingScenario.node[98].nic.mac1609_4 DroppedPacketsInMac 0
scalar SlicingScenario.node[98].nic.mac1609_4 TooLittleTime 0
scalar SlicingScenario.node[98].nic.mac1609_4 TimesIntoBackoff 45
scalar SlicingScenario.node[98].nic.mac1609_4 SlotsBackoff 71
scalar SlicingScenario.node[98].nic.mac1609_4 NumInternalContention 0
scalar SlicingScenario.node[98].nic.mac1609_4 totalBusyTime 0.065045
scalar SlicingScenario.node[98].veinsmobility startTime 98.4
scalar SlicingScenario.node[98].veinsmobility totalTime 44.8
scalar SlicingScenario.node[98].veinsmobility stopTime 143.6
scalar SlicingScenario.node[98].veinsmobility minSpeed 10.910008677086
scalar SlicingScenario.node[98].veinsmobility maxSpeed 11.109901806749
scalar SlicingScenario.node[98].veinsmobility totalDistance 976.71403754736
scalar SlicingScenario.node[98].veinsmobility totalCO2Emission 78.440066095784
scalar SlicingScenario.rsu[0].appl idVeh 577
scalar SlicingScenario.rsu[0].appl receivedEntMsgA 0
scalar SlicingScenario.rsu[0].appl generatedEntMsgA 0
scalar SlicingScenario.rsu[0].appl idVeh 583
scalar SlicingScenario.rsu[0].appl receivedEntMsgB 0
scalar SlicingScenario.rsu[0].appl generatedEntMsgB 0
scalar SlicingScenario.node[99].appl generatedWSMs 0
scalar SlicingScenario.node[99].appl receivedWSMs 0
scalar SlicingScenario.node[99].appl generatedBSMs 45
scalar SlicingScenario.node[99].appl receivedBSMs 551
scalar SlicingScenario.node[99].appl generatedWSAs 0
scalar SlicingScenario.node[99].appl receivedWSAs 0
scalar SlicingScenario.node[99].appl generatedWSAs 0
scalar SlicingScenario.node[99].appl receivedWSAs 0
scalar SlicingScenario.node[99].appl generatedEntMsgA 0
scalar SlicingScenario.node[99].appl receivedEntMsgA 0
scalar SlicingScenario.node[99].appl generatedEntMsgB 0
scalar SlicingScenario.node[99].appl receivedEntMsgB 0
scalar SlicingScenario.node[99].nic.phy80211p busyTime 0.0014012389380531
scalar SlicingScenario.node[99].nic.mac1609_4 ReceivedUnicastPackets 0
scalar SlicingScenario.node[99].nic.mac1609_4 ReceivedBroadcasts 551
scalar SlicingScenario.node[99].nic.mac1609_4 SentPackets 45
scalar SlicingScenario.node[99].nic.mac1609_4 SentAcknowledgements 0
scalar SlicingScenario.node[99].nic.mac1609_4 SNIRLostPackets 58
scalar SlicingScenario.node[99].nic.mac1609_4 RXTXLostPackets 0
scalar SlicingScenario.node[99].nic.mac1609_4 TotalLostPackets 58
scalar SlicingScenario.node[99].nic.mac1609_4 DroppedPacketsInMac 0
scalar SlicingScenario.node[99].nic.mac1609_4 TooLittleTime 0
scalar SlicingScenario.node[99].nic.mac1609_4 TimesIntoBackoff 45
scalar SlicingScenario.node[99].nic.mac1609_4 SlotsBackoff 59
scalar SlicingScenario.node[99].nic.mac1609_4 NumInternalContention 0
scalar SlicingScenario.node[99].nic.mac1609_4 totalBusyTime 0.065045
scalar SlicingScenario.node[99].veinsmobility startTime 99.2
scalar SlicingScenario.node[99].veinsmobility totalTime 44.8
scalar SlicingScenario.node[99].veinsmobility stopTime 144.4
scalar SlicingScenario.node[99].veinsmobility minSpeed 10.910479977811
scalar SlicingScenario.node[99].veinsmobility maxSpeed 11.108806772986
scalar SlicingScenario.node[99].veinsmobility totalDistance 978.07807494623
scalar SlicingScenario.node[99].veinsmobility totalCO2Emission 79.181339192443
scalar SlicingScenario.rsu[0].appl idVeh 589
scalar SlicingScenario.rsu[0].appl receivedEntMsgB 0
scalar SlicingScenario.rsu[0].appl generatedEntMsgB 0
scalar SlicingScenario.rsu[0].appl idVeh 595
scalar SlicingScenario.rsu[0].appl receivedEntMsgB 0
scalar SlicingScenario.rsu[0].appl generatedEntMsgB 0
scalar SlicingScenario.rsu[0].appl idVeh 601
scalar SlicingScenario.rsu[0].appl receivedEntMsgA 0
scalar SlicingScenario.rsu[0].appl generatedEntMsgA 0
scalar SlicingScenario.rsu[0].appl idVeh 607
scalar SlicingScenario.rsu[0].appl receivedEntMsgA 0
scalar SlicingScenario.rsu[0].appl generatedEntMsgA 0
scalar SlicingScenario.manager roiArea 0
scalar SlicingScenario.rsu[0].appl generatedWSMs 0
scalar SlicingScenario.rsu[0].appl receivedWSMs 0
scalar SlicingScenario.rsu[0].appl generatedBSMs 0
scalar SlicingScenario.rsu[0].appl receivedBSMs 4016
scalar SlicingScenario.rsu[0].appl generatedWSAs 0
scalar SlicingScenario.rsu[0].appl receivedWSAs 0
scalar SlicingScenario.rsu[0].appl generatedWSAs 0
scalar SlicingScenario.rsu[0].appl receivedWSAs 0
scalar SlicingScenario.rsu[0].nic.phy80211p busyTime 0.0028461333333332
scalar SlicingScenario.rsu[0].nic.mac1609_4 ReceivedUnicastPackets 0
scalar SlicingScenario.rsu[0].nic.mac1609_4 ReceivedBroadcasts 4016
scalar SlicingScenario.rsu[0].nic.mac1609_4 SentPackets 7692
scalar SlicingScenario.rsu[0].nic.mac1609_4 SentAcknowledgements 0
scalar SlicingScenario.rsu[0].nic.mac1609_4 SNIRLostPackets 89
scalar SlicingScenario.rsu[0].nic.mac1609_4 RXTXLostPackets 0
scalar SlicingScenario.rsu[0].nic.mac1609_4 TotalLostPackets 89
scalar SlicingScenario.rsu[0].nic.mac1609_4 DroppedPacketsInMac 0
scalar SlicingScenario.rsu[0].nic.mac1609_4 TooLittleTime 2929
scalar SlicingScenario.rsu[0].nic.mac1609_4 TimesIntoBackoff 8380
scalar SlicingScenario.rsu[0].nic.mac1609_4 SlotsBackoff 27120
scalar SlicingScenario.rsu[0].nic.mac1609_4 NumInternalContention 0
scalar SlicingScenario.rsu[0].nic.mac1609_4 totalBusyTime 13.919750113908

