version 2
run General-0-20190128-23:24:39-13549
attr configname General
attr datetime 20190128-23:24:39
attr experiment General
attr inifile omnetpp.ini
attr iterationvars ""
attr iterationvarsf ""
attr measurement ""
attr network com.liborio.slicing.SlicingScenario
attr processid 13549
attr repetition 0
attr replication #0
attr resultdir results
attr runnumber 0
attr seedset 0
param **.debug false
param **.coreDebug false
param *.playgroundSizeX 1200m
param *.playgroundSizeY 1200m
param *.playgroundSizeZ 50m
param *.annotations.draw true
param *.manager.updateInterval 0.4s
param *.manager.host "\"localhost\""
param *.manager.port 9999
param *.manager.autoShutdown true
param *.manager.launchConfig "xmldoc(\"highway.launchd.xml\")"
param *.connectionManager.sendDirect true
param *.connectionManager.maxInterfDist 2600m
param *.connectionManager.drawMaxIntfDist false
param *.rsu[*].applType "\"RSUApp\""
param *.rsu[*].appl.headerLength "80 bit"
param *.rsu[*].appl.sendBeacons false
param *.rsu[*].appl.dataOnSch true
param *.rsu[*].appl.beaconInterval 1s
param *.rsu[*].appl.beaconUserPriority 7
param *.rsu[*].appl.dataUserPriority 5
param *.rsu[*].nic.mac1609_4.useServiceChannel true
param *.rsu[*].nic.mac1609_4.txPower 20mW
param *.rsu[*].nic.mac1609_4.bitrate 6Mbps
param *.rsu[*].nic.phy80211p.sensitivity -89dBm
param *.rsu[0].mobility.x 515.0
param *.rsu[0].mobility.y 25.0
param *.rsu[0].mobility.z 3
param *.node[*].applType "\"VehApp\""
param *.node[*].appl.headerLength "80 bit"
param *.node[*].appl.sendBeacons true
param *.node[*].appl.dataOnSch true
param *.node[*].appl.beaconInterval 1s
param *.node[*].appl.wsaInterval 1s
param *.node[*].nic.mac1609_4.useServiceChannel true
param *.node[*].nic.mac1609_4.txPower 20mW
param *.node[*].nic.mac1609_4.bitrate 6Mbps
param *.node[*].nic.phy80211p.sensitivity -84.39dBm
param *.node[*].veinsmobilityType.debug true
param *.node[*].veinsmobility.x 0
param *.node[*].veinsmobility.y 0
param *.node[*].veinsmobility.z 1.895
param *.**.nic.phy80211p.useThermalNoise true
param *.**.nic.phy80211p.thermalNoise -110dBm
param *.**.nic.phy80211p.decider "xmldoc(\"config.xml\")"
param *.**.nic.phy80211p.analogueModels "xmldoc(\"config.xml\")"
param *.**.nic.phy80211p.usePropagationDelay true
param *.**.nic.phy80211p.antenna "xmldoc(\"antenna.xml\", \"/root/Antenna[@id='monopole']\")"

vector 0 SlicingScenario.node[0].veinsmobility posx ETV
vector 1 SlicingScenario.node[0].veinsmobility posy ETV
vector 2 SlicingScenario.node[0].veinsmobility speed ETV
vector 3 SlicingScenario.node[1].veinsmobility posx ETV
vector 4 SlicingScenario.node[1].veinsmobility posy ETV
vector 5 SlicingScenario.node[0].veinsmobility acceleration ETV
vector 6 SlicingScenario.node[0].veinsmobility co2emission ETV
vector 7 SlicingScenario.node[1].veinsmobility speed ETV
vector 8 SlicingScenario.node[1].veinsmobility acceleration ETV
vector 9 SlicingScenario.node[1].veinsmobility co2emission ETV
vector 10 SlicingScenario.node[2].veinsmobility posx ETV
vector 11 SlicingScenario.node[2].veinsmobility posy ETV
vector 12 SlicingScenario.node[2].veinsmobility speed ETV
vector 13 SlicingScenario.node[3].veinsmobility posx ETV
vector 14 SlicingScenario.node[3].veinsmobility posy ETV
vector 15 SlicingScenario.node[2].veinsmobility acceleration ETV
vector 16 SlicingScenario.node[2].veinsmobility co2emission ETV
vector 17 SlicingScenario.node[3].veinsmobility speed ETV
vector 18 SlicingScenario.node[3].veinsmobility acceleration ETV
vector 19 SlicingScenario.node[3].veinsmobility co2emission ETV
vector 20 SlicingScenario.node[4].veinsmobility posx ETV
vector 21 SlicingScenario.node[4].veinsmobility posy ETV
vector 22 SlicingScenario.node[4].veinsmobility speed ETV
vector 23 SlicingScenario.node[5].veinsmobility posx ETV
vector 24 SlicingScenario.node[5].veinsmobility posy ETV
vector 25 SlicingScenario.node[4].veinsmobility acceleration ETV
vector 26 SlicingScenario.node[4].veinsmobility co2emission ETV
vector 27 SlicingScenario.node[5].veinsmobility speed ETV
vector 28 SlicingScenario.node[5].veinsmobility acceleration ETV
vector 29 SlicingScenario.node[5].veinsmobility co2emission ETV
vector 30 SlicingScenario.node[6].veinsmobility posx ETV
vector 31 SlicingScenario.node[6].veinsmobility posy ETV
vector 32 SlicingScenario.node[6].veinsmobility speed ETV
vector 33 SlicingScenario.node[7].veinsmobility posx ETV
vector 34 SlicingScenario.node[7].veinsmobility posy ETV
vector 35 SlicingScenario.node[6].veinsmobility acceleration ETV
vector 36 SlicingScenario.node[6].veinsmobility co2emission ETV
vector 37 SlicingScenario.node[7].veinsmobility speed ETV
vector 38 SlicingScenario.node[7].veinsmobility acceleration ETV
vector 39 SlicingScenario.node[7].veinsmobility co2emission ETV
vector 40 SlicingScenario.node[8].veinsmobility posx ETV
vector 41 SlicingScenario.node[8].veinsmobility posy ETV
vector 42 SlicingScenario.node[8].veinsmobility speed ETV
vector 43 SlicingScenario.node[9].veinsmobility posx ETV
vector 44 SlicingScenario.node[9].veinsmobility posy ETV
vector 45 SlicingScenario.node[8].veinsmobility acceleration ETV
vector 46 SlicingScenario.node[8].veinsmobility co2emission ETV
vector 47 SlicingScenario.node[9].veinsmobility speed ETV
vector 48 SlicingScenario.node[9].veinsmobility acceleration ETV
vector 49 SlicingScenario.node[9].veinsmobility co2emission ETV
vector 50 SlicingScenario.node[10].veinsmobility posx ETV
vector 51 SlicingScenario.node[10].veinsmobility posy ETV
vector 52 SlicingScenario.node[10].veinsmobility speed ETV
vector 53 SlicingScenario.node[11].veinsmobility posx ETV
vector 54 SlicingScenario.node[11].veinsmobility posy ETV
vector 55 SlicingScenario.node[10].veinsmobility acceleration ETV
vector 56 SlicingScenario.node[10].veinsmobility co2emission ETV
vector 57 SlicingScenario.node[11].veinsmobility speed ETV
vector 58 SlicingScenario.node[11].veinsmobility acceleration ETV
vector 59 SlicingScenario.node[11].veinsmobility co2emission ETV
vector 60 SlicingScenario.node[12].veinsmobility posx ETV
vector 61 SlicingScenario.node[12].veinsmobility posy ETV
vector 62 SlicingScenario.node[12].veinsmobility speed ETV
vector 63 SlicingScenario.node[13].veinsmobility posx ETV
vector 64 SlicingScenario.node[13].veinsmobility posy ETV
vector 65 SlicingScenario.node[12].veinsmobility acceleration ETV
vector 66 SlicingScenario.node[12].veinsmobility co2emission ETV
vector 67 SlicingScenario.node[13].veinsmobility speed ETV
vector 68 SlicingScenario.node[13].veinsmobility acceleration ETV
vector 69 SlicingScenario.node[13].veinsmobility co2emission ETV
vector 70 SlicingScenario.node[14].veinsmobility posx ETV
vector 71 SlicingScenario.node[14].veinsmobility posy ETV
vector 72 SlicingScenario.node[14].veinsmobility speed ETV
vector 73 SlicingScenario.node[15].veinsmobility posx ETV
vector 74 SlicingScenario.node[15].veinsmobility posy ETV
vector 75 SlicingScenario.node[14].veinsmobility acceleration ETV
vector 76 SlicingScenario.node[14].veinsmobility co2emission ETV
vector 77 SlicingScenario.node[15].veinsmobility speed ETV
vector 78 SlicingScenario.node[15].veinsmobility acceleration ETV
vector 79 SlicingScenario.node[15].veinsmobility co2emission ETV
vector 80 SlicingScenario.node[16].veinsmobility posx ETV
vector 81 SlicingScenario.node[16].veinsmobility posy ETV
vector 82 SlicingScenario.node[16].veinsmobility speed ETV
vector 83 SlicingScenario.node[17].veinsmobility posx ETV
vector 84 SlicingScenario.node[17].veinsmobility posy ETV
vector 85 SlicingScenario.node[16].veinsmobility acceleration ETV
vector 86 SlicingScenario.node[16].veinsmobility co2emission ETV
vector 87 SlicingScenario.node[17].veinsmobility speed ETV
vector 88 SlicingScenario.node[17].veinsmobility acceleration ETV
vector 89 SlicingScenario.node[17].veinsmobility co2emission ETV
vector 90 SlicingScenario.node[18].veinsmobility posx ETV
vector 91 SlicingScenario.node[18].veinsmobility posy ETV
vector 92 SlicingScenario.node[18].veinsmobility speed ETV
vector 93 SlicingScenario.node[19].veinsmobility posx ETV
vector 94 SlicingScenario.node[19].veinsmobility posy ETV
vector 95 SlicingScenario.node[18].veinsmobility acceleration ETV
vector 96 SlicingScenario.node[18].veinsmobility co2emission ETV
vector 97 SlicingScenario.node[19].veinsmobility speed ETV
vector 98 SlicingScenario.node[19].veinsmobility acceleration ETV
vector 99 SlicingScenario.node[19].veinsmobility co2emission ETV
vector 100 SlicingScenario.node[20].veinsmobility posx ETV
vector 101 SlicingScenario.node[20].veinsmobility posy ETV
vector 102 SlicingScenario.node[20].veinsmobility speed ETV
vector 103 SlicingScenario.node[21].veinsmobility posx ETV
vector 104 SlicingScenario.node[21].veinsmobility posy ETV
vector 105 SlicingScenario.node[20].veinsmobility acceleration ETV
vector 106 SlicingScenario.node[20].veinsmobility co2emission ETV
vector 107 SlicingScenario.node[21].veinsmobility speed ETV
vector 108 SlicingScenario.node[21].veinsmobility acceleration ETV
vector 109 SlicingScenario.node[21].veinsmobility co2emission ETV
vector 110 SlicingScenario.node[22].veinsmobility posx ETV
vector 111 SlicingScenario.node[22].veinsmobility posy ETV
vector 112 SlicingScenario.node[22].veinsmobility speed ETV
vector 113 SlicingScenario.node[23].veinsmobility posx ETV
vector 114 SlicingScenario.node[23].veinsmobility posy ETV
vector 115 SlicingScenario.node[22].veinsmobility acceleration ETV
vector 116 SlicingScenario.node[22].veinsmobility co2emission ETV
vector 117 SlicingScenario.node[23].veinsmobility speed ETV
vector 118 SlicingScenario.node[23].veinsmobility acceleration ETV
vector 119 SlicingScenario.node[23].veinsmobility co2emission ETV
vector 120 SlicingScenario.node[24].veinsmobility posx ETV
vector 121 SlicingScenario.node[24].veinsmobility posy ETV
vector 122 SlicingScenario.node[24].veinsmobility speed ETV
vector 123 SlicingScenario.node[25].veinsmobility posx ETV
vector 124 SlicingScenario.node[25].veinsmobility posy ETV
vector 125 SlicingScenario.node[24].veinsmobility acceleration ETV
vector 126 SlicingScenario.node[24].veinsmobility co2emission ETV
vector 127 SlicingScenario.node[25].veinsmobility speed ETV
vector 128 SlicingScenario.node[25].veinsmobility acceleration ETV
vector 129 SlicingScenario.node[25].veinsmobility co2emission ETV
vector 130 SlicingScenario.node[26].veinsmobility posx ETV
vector 131 SlicingScenario.node[26].veinsmobility posy ETV
vector 132 SlicingScenario.node[26].veinsmobility speed ETV
vector 133 SlicingScenario.node[27].veinsmobility posx ETV
vector 134 SlicingScenario.node[27].veinsmobility posy ETV
vector 135 SlicingScenario.node[26].veinsmobility acceleration ETV
vector 136 SlicingScenario.node[26].veinsmobility co2emission ETV
vector 137 SlicingScenario.node[27].veinsmobility speed ETV
vector 138 SlicingScenario.node[27].veinsmobility acceleration ETV
vector 139 SlicingScenario.node[27].veinsmobility co2emission ETV
vector 140 SlicingScenario.node[28].veinsmobility posx ETV
vector 141 SlicingScenario.node[28].veinsmobility posy ETV
vector 142 SlicingScenario.node[28].veinsmobility speed ETV
vector 143 SlicingScenario.node[29].veinsmobility posx ETV
vector 144 SlicingScenario.node[29].veinsmobility posy ETV
vector 145 SlicingScenario.node[28].veinsmobility acceleration ETV
vector 146 SlicingScenario.node[28].veinsmobility co2emission ETV
vector 147 SlicingScenario.node[29].veinsmobility speed ETV
vector 148 SlicingScenario.node[29].veinsmobility acceleration ETV
vector 149 SlicingScenario.node[29].veinsmobility co2emission ETV
vector 150 SlicingScenario.node[30].veinsmobility posx ETV
vector 151 SlicingScenario.node[30].veinsmobility posy ETV
vector 152 SlicingScenario.node[30].veinsmobility speed ETV
vector 153 SlicingScenario.node[31].veinsmobility posx ETV
vector 154 SlicingScenario.node[31].veinsmobility posy ETV
vector 155 SlicingScenario.node[30].veinsmobility acceleration ETV
vector 156 SlicingScenario.node[30].veinsmobility co2emission ETV
vector 157 SlicingScenario.node[31].veinsmobility speed ETV
0	9	0.4	32.128
0	25	0.8	32.128
0	58	1.2	40.833213412764
0	82	1.6	49.519047417352
0	150	2	58.222689699485
0	236	2.4	66.935500204187
0	283	2.8	75.667513284376
0	390	3.2	84.397319470315
0	484	3.6	93.187456134961
0	613	4	101.91091398127
0	741	4.4	110.63400559732
0	986	4.8	119.30069072034
0	1176	5.2	128.04148126082
0	1433	5.6	136.70279133701
0	1692	6	145.41946770411
0	1913	6.4	154.12639576917
0	2157	6.8	162.90874000432
0	2860	7.2	171.67355842781
0	3710	7.6	180.37572246537
0	4237	8	189.07773321302
0	4672	8.4	197.77339583192
0	5090	8.8	206.47623545431
0	5999	9.2	215.17195346779
0	7783	9.6	223.89720984138
0	8764	10	232.57303991707
0	9445	10.4	241.26545223151
0	10428	10.8	249.99310861203
0	11060	11.2	258.77342214209
0	11951	11.6	267.43550989595
0	13528	12	276.12891209236
0	14968	12.4	284.92484705635
0	16397	12.8	293.57155639083
0	17556	13.2	302.29985173088
0	18966	13.6	311.05940400091
0	20283	14	319.79138536195
0	21906	14.4	328.52258840009
0	24217	14.8	337.21841524143
0	26262	15.2	346.0016593026
0	28490	15.6	354.77435065575
0	30641	16	363.4590970479
0	32571	16.4	372.17568484998
0	35494	16.8	380.86322560913
0	37561	17.2	389.57750137404
0	40278	17.6	398.3050073024
0	43035	18	407.10021819176
0	45509	18.4	415.85762792708
0	48681	18.8	424.613418869
0	52187	19.2	433.26087865342
0	55540	19.6	442.0413816072
0	60085	20	450.83567785742
0	63465	20.4	459.62481259188
0	67954	20.8	468.32786687866
0	71871	21.2	477.00449203791
0	76613	21.6	485.77354012836
0	82472	22	494.50815312739
0	87351	22.4	503.2684069609
0	92459	22.8	511.95929519761
0	97271	23.2	520.66533941515
0	102340	23.6	529.43688008246
0	108163	24	538.14429877629
0	113581	24.4	546.82756543736
0	120318	24.8	555.46948460117
0	125966	25.2	564.18435969075
0	132438	25.6	572.91555844885
0	138083	26	581.58684603136
0	144262	26.4	590.25567261499
0	151165	26.8	599.03561673046
0	157262	27.2	607.79706806336
0	165408	27.6	616.57530270096
0	173820	28	625.23237573375
0	180489	28.4	633.89490447576
0	188863	28.8	642.60790587199
0	196999	29.2	651.38869847939
0	205431	29.6	660.18320903808
0	212919	30	668.83622911803
0	220697	30.4	677.60996861123
0	228795	30.8	686.25101139048
0	239339	31.2	694.95634581287
0	249530	31.6	703.63435919572
1	9	0.4	36.55
1	25	0.8	36.55
1	58	1.2	36.55
1	82	1.6	36.55
1	150	2	36.55
1	236	2.4	36.55
1	283	2.8	36.55
1	390	3.2	36.55
1	484	3.6	36.55
1	613	4	36.55
1	741	4.4	36.55
1	986	4.8	36.55
1	1176	5.2	36.55
1	1433	5.6	36.55
1	1692	6	36.55
1	1913	6.4	36.55
1	2157	6.8	36.55
1	2860	7.2	36.55
1	3710	7.6	36.55
1	4237	8	36.55
1	4672	8.4	36.55
1	5090	8.8	36.55
1	5999	9.2	36.55
1	7783	9.6	36.55
1	8764	10	36.55
1	9445	10.4	36.55
1	10428	10.8	36.55
1	11060	11.2	36.55
1	11951	11.6	36.55
1	13528	12	36.55
1	14968	12.4	36.55
1	16397	12.8	36.55
1	17556	13.2	36.55
1	18966	13.6	36.55
1	20283	14	36.55
1	21906	14.4	36.55
1	24217	14.8	36.55
1	26262	15.2	36.55
1	28490	15.6	36.55
1	30641	16	36.55
1	32571	16.4	36.55
1	35494	16.8	36.55
1	37561	17.2	36.55
1	40278	17.6	36.55
1	43035	18	36.55
1	45509	18.4	36.55
1	48681	18.8	36.55
1	52187	19.2	36.55
1	55540	19.6	36.55
1	60085	20	36.55
1	63465	20.4	36.55
1	67954	20.8	36.55
1	71871	21.2	36.55
1	76613	21.6	36.55
1	82472	22	36.55
1	87351	22.4	36.55
1	92459	22.8	36.55
1	97271	23.2	36.55
1	102340	23.6	36.55
1	108163	24	36.55
1	113581	24.4	36.55
1	120318	24.8	36.55
1	125966	25.2	36.55
1	132438	25.6	36.55
1	138083	26	36.55
1	144262	26.4	36.55
1	151165	26.8	36.55
1	157262	27.2	36.55
1	165408	27.6	36.55
1	173820	28	36.55
1	180489	28.4	36.55
1	188863	28.8	36.55
1	196999	29.2	36.55
1	205431	29.6	36.55
1	212919	30	36.55
1	220697	30.4	36.55
1	228795	30.8	36.55
1	239339	31.2	36.55
1	249530	31.6	36.55
2	25	0.8	10.991431076722
2	58	1.2	10.966962127006
2	82	1.6	10.989447325924
2	150	2	11.001023364523
2	236	2.4	11.025269040642
2	283	2.8	11.022482558005
2	390	3.2	11.098657404855
2	484	3.6	11.014466977669
2	613	4	11.01400456572
2	741	4.4	10.942784246234
2	986	4.8	11.036351692528
2	1176	5.2	10.935997570949
2	1433	5.6	11.005904503902
2	1692	6	10.993596041752
2	1913	6.4	11.088818478715
2	2157	6.8	11.066689928658
2	2860	7.2	10.987580855507
2	3710	7.6	10.987387307631
2	4237	8	10.97937199356
2	4672	8.4	10.988433866659
2	5090	8.8	10.979441936212
2	5999	9.2	11.016737845438
2	7783	9.6	10.954330903655
2	8764	10	10.97526807379
2	9445	10.4	11.01976815722
2	10428	10.8	11.086254457142
2	11060	11.2	10.936979487203
2	11951	11.6	10.97651792475
2	13528	12	11.105978489891
2	14968	12.4	10.917562291017
2	16397	12.8	11.020574924294
2	17556	13.2	11.06004074499
2	18966	13.6	11.02522899121
2	20283	14	11.024246260282
2	21906	14.4	10.979579345128
2	24217	14.8	11.089954622686
2	26262	15.2	11.076630496411
2	28490	15.6	10.965588878971
2	30641	16	11.005792679396
2	32571	16.4	10.969117120132
2	35494	16.8	11.002873440543
2	37561	17.2	11.019578192374
2	40278	17.6	11.105064254245
2	43035	18	11.057335524391
2	45509	18.4	11.055291593345
2	48681	18.8	10.918509828802
2	52187	19.2	11.086493628509
2	55540	19.6	11.103909406848
2	60085	20	11.097392341485
2	63465	20.4	10.988704907559
2	67954	20.8	10.955334797027
2	71871	21.2	11.072030417239
2	76613	21.6	11.028551766453
2	82472	22	11.060926557463
2	87351	22.4	10.973343733223
2	92459	22.8	10.992480072649
2	97271	23.2	11.075177610237
2	102340	23.6	10.994215522511
2	108163	24	10.963720531659
2	113581	24.4	10.91151409572
2	120318	24.8	11.003630163604
2	125966	25.2	11.024240856189
2	132438	25.6	10.948595432462
2	138083	26	10.945488110641
2	144262	26.4	11.08578802458
2	151165	26.8	11.062438551653
2	157262	27.2	11.083629592918
2	165408	27.6	10.930647768676
2	173820	28	10.937536290418
2	180489	28.4	11.001264389176
2	188863	28.8	11.086859352784
2	196999	29.2	11.104179998338
2	205431	29.6	10.925530403983
2	212919	30	11.077953905556
2	220697	30.4	10.910407549553
2	228795	30.8	10.991583866663
2	239339	31.2	10.957087604599
2	249530	31.6	10.931639807336
3	58	1.2	32.128
3	82	1.6	32.128
3	150	2	38.297962766597
3	236	2.4	44.650520858012
3	283	2.8	51.221106459918
3	390	3.2	58.061362580351
3	484	3.6	65.065774518958
3	613	4	72.261577212269
3	741	4.4	79.684201646682
3	986	4.8	87.412373969395
3	1176	5.2	95.325459309002
3	1433	5.6	103.41752282804
3	1692	6	111.70275052565
3	1913	6.4	120.28207106285
3	2157	6.8	128.94931994893
3	2860	7.2	137.65783484233
3	3710	7.6	146.41699722859
3	4237	8	155.09278009057
3	4672	8.4	163.7349546328
3	5090	8.8	172.42864608544
3	5999	9.2	181.15286767099
3	7783	9.6	189.82643503474
3	8764	10	198.57063994605
3	9445	10.4	207.28869400591
3	10428	10.8	215.91250662767
3	11060	11.2	224.58167654736
3	11951	11.6	233.33875885197
3	13528	12	241.9420265084
3	14968	12.4	250.68548881491
3	16397	12.8	259.41597598559
3	17556	13.2	268.07910934188
3	18966	13.6	276.78440093023
3	20283	14	285.48550165417
3	21906	14.4	294.1454748271
3	24217	14.8	302.89374886369
3	26262	15.2	311.66755319858
3	28490	15.6	320.44706011336
3	30641	16	329.2381669563
3	32571	16.4	337.92898001085
3	35494	16.8	346.62749164007
3	37561	17.2	355.26278382821
3	40278	17.6	363.984215154
3	43035	18	372.64796436244
3	45509	18.4	381.42534864778
3	48681	18.8	390.15707712426
3	52187	19.2	398.87411413158
3	55540	19.6	407.53282943797
3	60085	20	416.21072191798
3	63465	20.4	425.00723946439
3	67954	20.8	433.75279508576
3	71871	21.2	442.54981836764
3	76613	21.6	451.28038826695
3	82472	22	459.95671345344
3	87351	22.4	468.68738120268
3	92459	22.8	477.41648597609
3	97271	23.2	486.21407136939
3	102340	23.6	494.91093304319
3	108163	24	503.62391418014
3	113581	24.4	512.38501496878
3	120318	24.8	521.05275649815
3	125966	25.2	529.78932822089
3	132438	25.6	538.48551483618
3	138083	26	547.20697046986
3	144262	26.4	555.87562683273
3	151165	26.8	564.49745207837
3	157262	27.2	573.17055937445
3	165408	27.6	581.81216628962
3	173820	28	590.57714652539
3	180489	28.4	599.34956402281
3	188863	28.8	608.12287882526
3	196999	29.2	616.90625126863
3	205431	29.6	625.58010218675
3	212919	30	634.29334888091
3	220697	30.4	643.06037646669
3	228795	30.8	651.85900549904
3	239339	31.2	660.56758105378
3	249530	31.6	669.34872488449
4	58	1.2	36.55
4	82	1.6	36.55
4	150	2	36.55
4	236	2.4	36.55
4	283	2.8	36.55
4	390	3.2	36.55
4	484	3.6	36.55
4	613	4	36.55
4	741	4.4	36.55
4	986	4.8	36.55
4	1176	5.2	36.55
4	1433	5.6	36.55
4	1692	6	36.55
4	1913	6.4	36.55
4	2157	6.8	36.55
4	2860	7.2	36.55
4	3710	7.6	36.55
4	4237	8	36.55
4	4672	8.4	36.55
4	5090	8.8	36.55
4	5999	9.2	36.55
4	7783	9.6	36.55
4	8764	10	36.55
4	9445	10.4	36.55
4	10428	10.8	36.55
4	11060	11.2	36.55
4	11951	11.6	36.55
4	13528	12	36.55
4	14968	12.4	36.55
4	16397	12.8	36.55
4	17556	13.2	36.55
4	18966	13.6	36.55
4	20283	14	36.55
4	21906	14.4	36.55
4	24217	14.8	36.55
4	26262	15.2	36.55
4	28490	15.6	36.55
4	30641	16	36.55
4	32571	16.4	36.55
4	35494	16.8	36.55
4	37561	17.2	36.55
4	40278	17.6	36.55
4	43035	18	36.55
4	45509	18.4	36.55
4	48681	18.8	36.55
4	52187	19.2	36.55
4	55540	19.6	36.55
4	60085	20	36.55
4	63465	20.4	36.55
4	67954	20.8	36.55
4	71871	21.2	36.55
4	76613	21.6	36.55
4	82472	22	36.55
4	87351	22.4	36.55
4	92459	22.8	36.55
4	97271	23.2	36.55
4	102340	23.6	36.55
4	108163	24	36.55
4	113581	24.4	36.55
4	120318	24.8	36.55
4	125966	25.2	36.55
4	132438	25.6	36.55
4	138083	26	36.55
4	144262	26.4	36.55
4	151165	26.8	36.55
4	157262	27.2	36.55
4	165408	27.6	36.55
4	173820	28	36.55
4	180489	28.4	36.55
4	188863	28.8	36.55
4	196999	29.2	36.55
4	205431	29.6	36.55
4	212919	30	36.55
4	220697	30.4	36.55
4	228795	30.8	36.55
4	239339	31.2	36.55
4	249530	31.6	36.55
5	58	1.2	-0.061172374291343
5	82	1.6	0.056212997296825
5	150	2	0.028940096497534
5	236	2.4	0.060614190297201
5	283	2.8	-0.0069662065943676
5	390	3.2	0.19043711712584
5	484	3.6	-0.21047606796492
5	613	4	-0.0011560298735303
5	741	4.4	-0.17805079871323
5	986	4.8	0.23391861573328
5	1176	5.2	-0.25088530394714
5	1433	5.6	0.17476733238436
5	1692	6	-0.030771155375988
5	1913	6.4	0.23805609240663
5	2157	6.8	-0.055321375140922
5	2860	7.2	-0.19777268287726
5	3710	7.6	-0.00048386969138114
5	4237	8	-0.020038285176267
5	4672	8.4	0.022654682747087
5	5090	8.8	-0.022479826118795
5	5999	9.2	0.093239773064848
5	7783	9.6	-0.15601735445671
5	8764	10	0.052342925337143
5	9445	10.4	0.11125020857435
5	10428	10.8	0.16621574980673
5	11060	11.2	-0.37318742484786
5	11951	11.6	0.098846093867904
5	13528	12	0.32365141285118
5	14968	12.4	-0.47104049718473
5	16397	12.8	0.25753158319276
5	17556	13.2	0.09866455174051
5	18966	13.6	-0.087029384449124
5	20283	14	-0.0024568273220194
5	21906	14.4	-0.11166728788521
5	24217	14.8	0.27593819389585
5	26262	15.2	-0.03331031568814
5	28490	15.6	-0.27760404360015
5	30641	16	0.10050950106233
5	32571	16.4	-0.09168889815919
5	35494	16.8	0.084390801028347
5	37561	17.2	0.041761879576372
5	40278	17.6	0.21371515467763
5	43035	18	-0.11932182463352
5	45509	18.4	-0.005109827616252
5	48681	18.8	-0.34195441135671
5	52187	19.2	0.41995949926786
5	55540	19.6	0.043539445847274
5	60085	20	-0.016292663407511
5	63465	20.4	-0.27171858481597
5	67954	20.8	-0.083425276330673
5	71871	21.2	0.29173905053176
5	76613	21.6	-0.10869662696496
5	82472	22	0.080936977523378
5	87351	22.4	-0.21895706059877
5	92459	22.8	0.047840848565102
5	97271	23.2	0.20674384396989
5	102340	23.6	-0.20240521931555
5	108163	24	-0.076237477129326
5	113581	24.4	-0.13051608984824
5	120318	24.8	0.23029016971122
5	125966	25.2	0.051526731462217
5	132438	25.6	-0.18911355931778
5	138083	26	-0.007768304552882
5	144262	26.4	0.35074978484772
5	151165	26.8	-0.058373682317323
5	157262	27.2	0.052977603161706
5	165408	27.6	-0.38245456060395
5	173820	28	0.017221304355188
5	180489	28.4	0.15932024689391
5	188863	28.8	0.21398740902077
5	196999	29.2	0.043301613884976
5	205431	29.6	-0.44662398588843
5	212919	30	0.38105875393376
5	220697	30.4	-0.41886589000933
5	228795	30.8	0.20294079277664
5	239339	31.2	-0.08624065516051
5	249530	31.6	-0.063619493157603
6	58	1.2	1.5992170877715
6	82	1.6	1.9116113944541
6	150	2	1.8404073099414
6	236	2.4	1.9267219251796
6	283	2.8	1.7469311507971
6	390	3.2	2.2810703276829
6	484	3.6	1.206074053728
6	613	4	1.7616735533417
6	741	4.4	1.2893699918118
6	986	4.8	2.3887404831623
6	1176	5.2	0.973
6	1433	5.6	2.2276361172472
6	1692	6	1.6815458978651
6	1913	6.4	2.4070657555836
6	2157	6.8	1.6215172404188
6	2860	7.2	1.2388777560279
6	3710	7.6	1.7612841218763
6	4237	8	1.7088888839952
6	4672	8.4	1.8226453087963
6	5090	8.8	1.7024338284703
6	5999	9.2	2.0125206074579
6	7783	9.6	1.3479832749529
6	8764	10	1.9000248461591
6	9445	10.4	2.0606683062827
6	10428	10.8	2.2147654940565
6	11060	11.2	0.973
6	11951	11.6	2.0231593637797
6	13528	12	2.6385630905776
6	14968	12.4	0.973
6	16397	12.8	2.449273276875
6	17556	13.2	2.0315044275871
6	18966	13.6	1.5344172418018
6	20283	14	1.7590533798007
6	21906	14.4	1.4664472673552
6	24217	14.8	2.5084711656517
6	26262	15.2	1.6809597587089
6	28490	15.6	0.973
6	30641	16	2.0306610816245
6	32571	16.4	1.5186889425978
6	35494	16.8	1.9876097399249
6	37561	17.2	1.8761062261364
6	40278	17.6	2.3441917690947
6	43035	18	1.4503239271114
6	45509	18.4	1.7545127707513
6	48681	18.8	0.973
6	52187	19.2	2.8927587183812
6	55540	19.6	1.8886397404851
6	60085	20	1.7280151415539
6	63465	20.4	0.973
6	67954	20.8	1.5396875395936
6	71871	21.2	2.5479669399056
6	76613	21.6	1.4770308584744
6	82472	22	1.9843421556031
6	87351	22.4	1.1823701241487
6	92459	22.8	1.8897209180578
6	97271	23.2	2.3215847713184
6	102340	23.6	1.2268293025295
6	108163	24	1.5591946162088
6	113581	24.4	1.4131694041204
6	120318	24.8	2.3745938944964
6	125966	25.2	1.9024787290781
6	132438	25.6	1.260403586789
6	138083	26	1.7386559829612
6	144262	26.4	2.707723374461
6	151165	26.8	1.6130869966151
6	157262	27.2	1.9119677269473
6	165408	27.6	0.973
6	173820	28	1.8038947154778
6	180489	28.4	2.1861062099538
6	188863	28.8	2.342482187588
6	196999	29.2	1.8880284156208
6	205431	29.6	0.973
6	212919	30	2.7873350905659
6	220697	30.4	0.973
6	228795	30.8	2.3004927074425
6	239339	31.2	1.5323607118229
6	249530	31.6	1.5904132937507
7	82	1.6	7.7903570285312
7	150	2	8.0209066810798
7	236	2.4	8.2961939418003
7	283	2.8	8.6366870207492
7	390	3.2	8.8439544679377
7	484	3.6	9.085609461252
7	613	4	9.3720005485009
7	741	4.4	9.7577933367587
7	986	4.8	9.9912693681907
7	1176	5.2	10.217251917977
7	1433	5.6	10.461146082847
7	1692	6	10.832475425747
7	1913	6.4	10.943496068286
7	2157	6.8	10.995599612876
7	2860	7.2	11.059548467505
7	3710	7.6	10.954271290375
7	4237	8	10.911836543218
7	4672	8.4	10.976883147274
7	5090	8.8	11.015431294891
7	5999	9.2	10.951473944127
7	7783	9.6	11.040662766803
7	8764	10	11.007644014978
7	9445	10.4	10.888652300198
7	10428	10.8	10.945921615771
7	11060	11.2	11.056922101779
7	11951	11.6	10.862711687421
7	13528	12	11.039725134476
7	14968	12.4	11.023342387229
7	16397	12.8	10.938299692282
7	17556	13.2	10.991529783273
7	18966	13.6	10.986238287799
7	20283	14	10.934309561774
7	21906	14.4	11.045800551251
7	24217	14.8	11.078035776377
7	26262	15.2	11.08523600352
7	28490	15.6	11.099882377442
7	30641	16	10.973248806253
7	32571	16.4	10.982969228808
7	35494	16.8	10.903146702207
7	37561	17.2	11.011908239629
7	40278	17.6	10.939077283386
7	43035	18	11.082555915825
7	45509	18.4	11.024909692528
7	48681	18.8	11.006359857731
7	52187	19.2	10.93272134645
7	55540	19.6	10.956934949514
7	60085	20	11.106714073746
7	63465	20.4	11.042368208794
7	67954	20.8	11.107352628643
7	71871	21.2	11.023446842562
7	76613	21.6	10.954956043549
7	82472	22	11.023570390455
7	87351	22.4	11.021596936127
7	92459	22.8	11.108062365269
7	97271	23.2	10.98088595177
7	102340	23.6	11.001238809284
7	108163	24	11.061995945256
7	113581	24.4	10.944118092636
7	120318	24.8	11.031024902447
7	125966	25.2	10.980033605164
7	132438	25.6	11.011938931411
7	138083	26	10.94527318544
7	144262	26.4	10.886142986922
7	151165	26.8	10.950893050609
7	157262	27.2	10.91111984238
7	165408	27.6	11.066894237082
7	173820	28	11.07628471897
7	180489	28.4	11.077417679858
7	188863	28.8	11.090116721429
7	196999	29.2	10.951831967328
7	205431	29.6	11.001574108787
7	212919	30	11.069479274975
7	220697	30.4	11.109380091345
7	228795	30.8	10.995676205483
7	239339	31.2	11.087302816557
7	249530	31.6	10.996423706566
8	150	2	0.57637413137127
8	236	2.4	0.68821815180127
8	283	2.8	0.85123269737232
8	390	3.2	0.51816861797124
8	484	3.6	0.60413748328574
8	613	4	0.7159777181223
8	741	4.4	0.96448197064456
8	986	4.8	0.58369007857982
8	1176	5.2	0.56495637446642
8	1433	5.6	0.60973541217391
8	1692	6	0.92832335724961
8	1913	6.4	0.27755160634742
8	2157	6.8	0.13025886147661
8	2860	7.2	0.15987213657131
8	3710	7.6	-0.26319294282389
8	4237	8	-0.10608686789352
8	4672	8.4	0.16261651014148
8	5090	8.8	0.09637036904095
8	5999	9.2	-0.15989337691034
8	7783	9.6	0.22297205669184
8	8764	10	-0.082546879562657
8	9445	10.4	-0.29747928695148
8	10428	10.8	0.14317328893391
8	11060	11.2	0.27750121501906
8	11951	11.6	-0.48552603589515
8	13528	12	0.44253361763825
8	14968	12.4	-0.040956868117363
8	16397	12.8	-0.21260673736784
8	17556	13.2	0.13307522747678
8	18966	13.6	-0.013228738684301
8	20283	14	-0.12982181506231
8	21906	14.4	0.2787274736911
8	24217	14.8	0.080588062817157
8	26262	15.2	0.01800056785632
8	28490	15.6	0.036615934805013
8	30641	16	-0.31658392797348
8	32571	16.4	0.024301056387994
8	35494	16.8	-0.19955631650081
8	37561	17.2	0.27190384355416
8	40278	17.6	-0.18207739060744
8	43035	18	0.35869658109732
8	45509	18.4	-0.14411555824336
8	48681	18.8	-0.046374586992894
8	52187	19.2	-0.18409627820182
8	55540	19.6	0.060534007659214
8	60085	20	0.37444781058002
8	63465	20.4	-0.16086466237903
8	67954	20.8	0.16246104962192
8	71871	21.2	-0.20976446520069
8	76613	21.6	-0.17122699753384
8	82472	22	0.17153586726636
8	87351	22.4	-0.004933635820632
8	92459	22.8	0.21616357285529
8	97271	23.2	-0.31794103374704
8	102340	23.6	0.050882143783384
8	108163	24	0.15189283993095
8	113581	24.4	-0.29469463154981
8	120318	24.8	0.2172670245268
8	125966	25.2	-0.1274782432077
8	132438	25.6	0.07976331561804
8	138083	26	-0.16666436492822
8	144262	26.4	-0.14782549629374
8	151165	26.8	0.16187515921702
8	157262	27.2	-0.099433020572182
8	165408	27.6	0.38943598675542
8	173820	28	0.023476204718462
8	180489	28.4	0.0028324022216353
8	188863	28.8	0.031747603926102
8	196999	29.2	-0.34571188525297
8	205431	29.6	0.12435535364784
8	212919	30	0.16976291547135
8	220697	30.4	0.099752040923788
8	228795	30.8	-0.28425971465499
8	239339	31.2	0.22906652768456
8	249530	31.6	-0.22719777497579
9	150	2	2.6587517034267
9	236	2.4	2.9389683007288
9	283	2.8	3.3579382337849
9	390	3.2	2.7049550093978
9	484	3.6	2.9404128024488
9	613	4	3.2552947212538
9	741	4.4	3.9346466584378
9	986	4.8	3.0895809251422
9	1176	5.2	3.0925363962198
9	1433	5.6	3.2576290443784
9	1692	6	4.1734879622958
9	1913	6.4	2.4909952433907
9	2157	6.8	2.108414616223
9	2860	7.2	2.1945919954046
9	3710	7.6	0.973
9	4237	8	1.4774282665806
9	4672	8.4	2.1918979760389
9	5090	8.8	2.0206951311998
9	5999	9.2	1.3376278858112
9	7783	9.6	2.3602104617213
9	8764	10	1.5452376993524
9	9445	10.4	0.973
9	10428	10.8	2.1368694365222
9	11060	11.2	2.5077234507893
9	11951	11.6	0.973
9	13528	12	2.9442429003441
9	14968	12.4	1.6566996800981
9	16397	12.8	1.1981033742437
9	17556	13.2	2.1154146470073
9	18966	13.6	1.727446010367
9	20283	14	1.4161353076326
9	21906	14.4	2.509331073774
9	24217	14.8	1.9851507022305
9	26262	15.2	1.8186778144174
9	28490	15.6	1.8697447788668
9	30641	16	0.973
9	32571	16.4	1.8265268655391
9	35494	16.8	1.2313389432414
9	37561	17.2	2.4861679227923
9	40278	17.6	1.2786118833157
9	43035	18	2.7284092621654
9	45509	18.4	1.3827196312608
9	48681	18.8	1.6411063710077
9	52187	19.2	1.2730541788883
9	55540	19.6	1.9199277456866
9	60085	20	2.7746487334535
9	63465	20.4	1.3389715997666
9	67954	20.8	2.2072975722204
9	71871	21.2	1.208244386548
9	76613	21.6	1.3078550628629
9	82472	22	2.2212414056972
9	87351	22.4	1.7522590224431
9	92459	22.8	2.3511478321685
9	97271	23.2	0.973
9	102340	23.6	1.8986013499593
9	108163	24	2.1736150087502
9	113581	24.4	0.973
9	120318	24.8	2.3437356301431
9	125966	25.2	1.4246333711579
9	132438	25.6	1.9762550638652
9	138083	26	1.3195011314138
9	144262	26.4	1.3664960546545
9	151165	26.8	2.1868032720432
9	157262	27.2	1.4948851915786
9	165408	27.6	2.8077532341121
9	173820	28	1.8325191613862
9	180489	28.4	1.7775068648607
9	188863	28.8	1.8558426731776
9	196999	29.2	0.973
9	205431	29.6	2.093438235266
9	212919	30	2.2221766872779
9	220697	30.4	2.0396494633701
9	228795	30.8	0.973
9	239339	31.2	2.382833565339
9	249530	31.6	0.973
10	236	2.4	32.128
10	283	2.8	32.128
10	390	3.2	40.866233937417
10	484	3.6	49.524097093939
10	613	4	58.262479956962
10	741	4.4	66.977823001391
10	986	4.8	75.630328494688
10	1176	5.2	84.326778069441
10	1433	5.6	93.00263803915
10	1692	6	101.67489377595
10	1913	6.4	110.35986556394
10	2157	6.8	119.03882084967
10	2860	7.2	127.72121301028
10	3710	7.6	136.42249954695
10	4237	8	145.11361921177
10	4672	8.4	153.90319949788
10	5090	8.8	162.68189757222
10	5999	9.2	171.3805485622
10	7783	9.6	180.07621620398
10	8764	10	188.76845543614
10	9445	10.4	197.56542568807
10	10428	10.8	206.28382118758
10	11060	11.2	215.06390205175
10	11951	11.6	223.82867742585
10	13528	12	232.48059690812
10	14968	12.4	241.25069939614
10	16397	12.8	250.00705013391
10	17556	13.2	258.77083400361
10	18966	13.6	267.50472169315
10	20283	14	276.15239804461
10	21906	14.4	284.90556975119
10	24217	14.8	293.61371663067
10	26262	15.2	302.28513550237
10	28490	15.6	311.07830609587
10	30641	16	319.76695337831
10	32571	16.4	328.45044287334
10	35494	16.8	337.19485916745
10	37561	17.2	345.95164478207
10	40278	17.6	354.60117619572
10	43035	18	363.30245918132
10	45509	18.4	372.02934646498
10	48681	18.8	380.82845769748
10	52187	19.2	389.58735334085
10	55540	19.6	398.25855262688
10	60085	20	407.00134356965
10	63465	20.4	415.76231629134
10	67954	20.8	424.40660106191
10	71871	21.2	433.07194432959
10	76613	21.6	441.84937932618
10	82472	22	450.59572913342
10	87351	22.4	459.38065601297
10	92459	22.8	468.10248717685
10	97271	23.2	476.76739876668
10	102340	23.6	485.4843352793
10	108163	24	494.22125545139
10	113581	24.4	502.90955531772
10	120318	24.8	511.55789840092
10	125966	25.2	520.20511553784
10	132438	25.6	528.96736886731
10	138083	26	537.61216668253
10	144262	26.4	546.30581459885
10	151165	26.8	554.9758439082
10	157262	27.2	563.67499362181
10	165408	27.6	572.33673497997
10	173820	28	581.12438136368
10	180489	28.4	589.78175503362
10	188863	28.8	598.43944565387
10	196999	29.2	607.23471444325
10	205431	29.6	615.88893160213
10	212919	30	624.59002953676
10	220697	30.4	633.34162495654
10	228795	30.8	642.02354734351
10	239339	31.2	650.75879760631
10	249530	31.6	659.4436467911
11	236	2.4	33.25
11	283	2.8	33.25
11	390	3.2	33.25
11	484	3.6	33.25
11	613	4	33.25
11	741	4.4	33.25
11	986	4.8	33.25
11	1176	5.2	33.25
11	1433	5.6	33.25
11	1692	6	33.25
11	1913	6.4	33.25
11	2157	6.8	33.25
11	2860	7.2	33.25
11	3710	7.6	33.25
11	4237	8	33.25
11	4672	8.4	33.25
11	5090	8.8	33.25
11	5999	9.2	33.25
11	7783	9.6	33.25
11	8764	10	33.25
11	9445	10.4	33.25
11	10428	10.8	33.25
11	11060	11.2	33.25
11	11951	11.6	33.25
11	13528	12	33.25
11	14968	12.4	33.25
11	16397	12.8	33.25
11	17556	13.2	33.25
11	18966	13.6	33.25
11	20283	14	33.25
11	21906	14.4	33.25
11	24217	14.8	33.25
11	26262	15.2	33.25
11	28490	15.6	33.25
11	30641	16	33.25
11	32571	16.4	33.25
11	35494	16.8	33.25
11	37561	17.2	33.25
11	40278	17.6	33.25
11	43035	18	33.25
11	45509	18.4	33.25
11	48681	18.8	33.25
11	52187	19.2	33.25
11	55540	19.6	33.25
11	60085	20	33.25
11	63465	20.4	33.25
11	67954	20.8	33.25
11	71871	21.2	33.25
11	76613	21.6	33.25
11	82472	22	33.25
11	87351	22.4	33.25
11	92459	22.8	33.25
11	97271	23.2	33.25
11	102340	23.6	33.25
11	108163	24	33.25
11	113581	24.4	33.25
11	120318	24.8	33.25
11	125966	25.2	33.25
11	132438	25.6	33.25
11	138083	26	33.25
11	144262	26.4	33.25
11	151165	26.8	33.25
11	157262	27.2	33.25
11	165408	27.6	33.25
11	173820	28	33.25
11	180489	28.4	33.25
11	188863	28.8	33.25
11	196999	29.2	33.25
11	205431	29.6	33.25
11	212919	30	33.25
11	220697	30.4	33.25
11	228795	30.8	33.25
11	239339	31.2	33.25
11	249530	31.6	33.25
12	283	2.8	11.033123658355
12	390	3.2	10.931645399649
12	484	3.6	11.033311695736
12	613	4	11.004221015694
12	741	4.4	10.924880673354
12	986	4.8	10.980365624689
12	1176	5.2	10.954368648622
12	1433	5.6	10.9498178495
12	1692	6	10.965873469682
12	1913	6.4	10.958276875913
12	2157	6.8	10.962616364416
12	2860	7.2	10.98647289983
12	3710	7.6	10.973635940431
12	4237	8	11.0979549067
12	4672	8.4	11.08421474033
12	5090	8.8	10.983145189369
12	5999	9.2	10.979378335588
12	7783	9.6	10.975049535548
12	8764	10	11.107285671625
12	9445	10.4	11.008075125646
12	10428	10.8	11.085960687082
12	11060	11.2	11.066635573367
12	11951	11.6	10.924140760433
12	13528	12	11.073361727307
12	14968	12.4	11.055998406271
12	16397	12.8	11.065383673869
12	17556	13.2	11.027635971634
12	18966	13.6	10.918783272048
12	20283	14	11.051984478012
12	21906	14.4	10.995134948837
12	24217	14.8	10.948761201641
12	26262	15.2	11.102488123104
12	28490	15.6	10.970514245508
12	30641	16	10.964001887655
12	32571	16.4	11.04092966429
12	35494	16.8	11.056547493199
12	37561	17.2	10.921125522293
12	40278	17.6	10.986468416164
12	43035	18	11.01879707532
12	45509	18.4	11.109988929927
12	48681	18.8	11.059211670924
12	52187	19.2	10.948483947003
12	55540	19.6	11.038877452994
12	60085	20	11.06183424456
12	63465	20.4	10.914500972945
12	67954	20.8	10.941089984439
12	71871	21.2	11.082619945183
12	76613	21.6	11.043370968746
12	82472	22	11.09207939337
12	87351	22.4	11.012413085708
12	92459	22.8	10.940544936657
12	97271	23.2	11.006232970478
12	102340	23.6	11.031464863745
12	108163	24	10.970075588804
12	113581	24.4	10.919625105048
12	120318	24.8	10.918203455713
12	125966	25.2	11.063451173566
12	132438	25.6	10.915148756597
12	138083	26	10.976828177171
12	144262	26.4	10.947006703718
12	151165	26.8	10.983774890928
12	157262	27.2	10.93654211889
12	165408	27.6	11.095513110738
12	173820	28	10.931027361043
12	180489	28.4	10.931427550819
12	188863	28.8	11.105137360319
12	196999	29.2	10.927041867273
12	205431	29.6	10.986234765956
12	212919	30	11.049994216897
12	220697	30.4	10.962023215871
12	228795	30.8	11.029356392417
12	239339	31.2	10.965718667665
12	249530	31.6	11.088599172318
13	390	3.2	32.128
13	484	3.6	32.128
13	613	4	39.549112823479
13	741	4.4	47.119771891017
13	986	4.8	54.816012568756
13	1176	5.2	62.604008617844
13	1433	5.6	70.503903745607
13	1692	6	78.595296784492
13	1913	6.4	86.863725162371
13	2157	6.8	95.37393523329
13	2860	7.2	104.02313656078
13	3710	7.6	112.63145324854
13	4237	8	121.24843802193
13	4672	8.4	129.93353612729
13	5090	8.8	138.566090142
13	5999	9.2	147.19203457676
13	7783	9.6	155.91331236654
13	8764	10	164.48276424359
13	9445	10.4	173.11906419029
13	10428	10.8	181.89962082499
13	11060	11.2	190.5492481452
13	11951	11.6	199.2014671952
13	13528	12	207.97971041385
13	14968	12.4	216.52796289693
13	16397	12.8	225.28760805966
13	17556	13.2	233.9400467642
13	18966	13.6	242.63346622827
13	20283	14	251.31013522855
13	21906	14.4	260.06186147546
13	24217	14.8	268.72705802427
13	26262	15.2	277.38053197838
13	28490	15.6	286.0562502971
13	30641	16	294.71813533666
13	32571	16.4	303.50864819967
13	35494	16.8	312.30259385864
13	37561	17.2	321.0005489085
13	40278	17.6	329.58775886568
13	43035	18	338.37622652416
13	45509	18.4	347.13408925574
13	48681	18.8	355.80679863781
13	52187	19.2	364.5311931882
13	55540	19.6	373.24836033699
13	60085	20	381.88951186747
13	63465	20.4	390.57865602171
13	67954	20.8	399.34318101056
13	71871	21.2	407.98797843755
13	76613	21.6	416.70610551075
13	82472	22	425.46843962272
13	87351	22.4	434.20021547373
13	92459	22.8	442.88914840305
13	97271	23.2	451.64505341457
13	102340	23.6	460.36888756657
13	108163	24	469.15339355564
13	113581	24.4	477.83102653627
13	120318	24.8	486.61668236685
13	125966	25.2	495.26848461339
13	132438	25.6	504.05682167972
13	138083	26	512.75456185354
13	144262	26.4	521.43674676313
13	151165	26.8	530.18517684402
13	157262	27.2	538.89654484141
13	165408	27.6	547.55208685061
13	173820	28	556.23247815792
13	180489	28.4	565.02388561588
13	188863	28.8	573.77822599181
13	196999	29.2	582.48592697673
13	205431	29.6	591.13939319709
13	212919	30	599.8440362901
13	220697	30.4	608.53843527567
13	228795	30.8	617.28018452896
13	239339	31.2	626.01090979661
13	249530	31.6	634.69942723709
14	390	3.2	36.55
14	484	3.6	36.55
14	613	4	36.55
14	741	4.4	36.55
14	986	4.8	36.55
14	1176	5.2	36.55
14	1433	5.6	36.55
14	1692	6	36.55
14	1913	6.4	36.55
14	2157	6.8	36.55
14	2860	7.2	36.55
14	3710	7.6	36.55
14	4237	8	36.55
14	4672	8.4	36.55
14	5090	8.8	36.55
14	5999	9.2	36.55
14	7783	9.6	36.55
14	8764	10	36.55
14	9445	10.4	36.55
14	10428	10.8	36.55
14	11060	11.2	36.55
14	11951	11.6	36.55
14	13528	12	36.55
14	14968	12.4	36.55
14	16397	12.8	36.55
14	17556	13.2	36.55
14	18966	13.6	36.55
14	20283	14	36.55
14	21906	14.4	36.55
14	24217	14.8	36.55
14	26262	15.2	36.55
14	28490	15.6	36.55
14	30641	16	36.55
14	32571	16.4	36.55
14	35494	16.8	36.55
14	37561	17.2	36.55
14	40278	17.6	36.55
14	43035	18	36.55
14	45509	18.4	36.55
14	48681	18.8	36.55
14	52187	19.2	36.55
14	55540	19.6	36.55
14	60085	20	36.55
14	63465	20.4	36.55
14	67954	20.8	36.55
14	71871	21.2	36.55
14	76613	21.6	36.55
14	82472	22	36.55
14	87351	22.4	36.55
14	92459	22.8	36.55
14	97271	23.2	36.55
14	102340	23.6	36.55
14	108163	24	36.55
14	113581	24.4	36.55
14	120318	24.8	36.55
14	125966	25.2	36.55
14	132438	25.6	36.55
14	138083	26	36.55
14	144262	26.4	36.55
14	151165	26.8	36.55
14	157262	27.2	36.55
14	165408	27.6	36.55
14	173820	28	36.55
14	180489	28.4	36.55
14	188863	28.8	36.55
14	196999	29.2	36.55
14	205431	29.6	36.55
14	212919	30	36.55
14	220697	30.4	36.55
14	228795	30.8	36.55
14	239339	31.2	36.55
14	249530	31.6	36.55
15	390	3.2	-0.25369564676657
15	484	3.6	0.25416574021801
15	613	4	-0.072726700105701
15	741	4.4	-0.19835085584782
15	986	4.8	0.13871237833519
15	1176	5.2	-0.064992440165952
15	1433	5.6	-0.011376997805201
15	1692	6	0.040139050455767
15	1913	6.4	-0.01899148442317
15	2157	6.8	0.010848721256478
15	2860	7.2	0.059641338535585
15	3710	7.6	-0.032092398498205
15	4237	8	0.31079741567373
15	4672	8.4	-0.034350415924562
15	5090	8.8	-0.25267387740314
15	5999	9.2	-0.0094171344535443
15	7783	9.6	-0.010822000098414
15	8764	10	0.33059034019243
15	9445	10.4	-0.2480263649486
15	10428	10.8	0.19471390359104
15	11060	11.2	-0.048312784289006
15	11951	11.6	-0.35623703233432
15	13528	12	0.37305241718423
15	14968	12.4	-0.043408302590251
15	16397	12.8	0.023463168996387
15	17556	13.2	-0.094369255588389
15	18966	13.6	-0.27213174896315
15	20283	14	0.33300301490817
15	21906	14.4	-0.14212382293772
15	24217	14.8	-0.11593436799012
15	26262	15.2	0.38431730365847
15	28490	15.6	-0.32993469398935
15	30641	16	-0.016280894633383
15	32571	16.4	0.19231944158673
15	35494	16.8	0.03904457227327
15	37561	17.2	-0.33855492726434
15	40278	17.6	0.16335723467637
15	43035	18	0.080821647890841
15	45509	18.4	0.22797963651829
15	48681	18.8	-0.12694314750843
15	52187	19.2	-0.27681930980179
15	55540	19.6	0.22598376497626
15	60085	20	0.057391978916712
15	63465	20.4	-0.36833317903802
15	67954	20.8	0.066472528735173
15	71871	21.2	0.35382490186021
15	76613	21.6	-0.098122441093436
15	82472	22	0.12177106156014
15	87351	22.4	-0.19916576915421
15	92459	22.8	-0.1796703726286
15	97271	23.2	0.16422008455265
15	102340	23.6	0.063079733168703
15	108163	24	-0.15347318735439
15	113581	24.4	-0.12612620939035
15	120318	24.8	-0.003554123337377
15	125966	25.2	0.36311929463409
15	132438	25.6	-0.37075604242273
15	138083	26	0.15419855143409
15	144262	26.4	-0.074553683632983
15	151165	26.8	0.091920468024909
15	157262	27.2	-0.11808193009347
15	165408	27.6	0.39742747962009
15	173820	28	-0.41121437423862
15	180489	28.4	0.0010004744399339
15	188863	28.8	0.43427452375181
15	196999	29.2	-0.44523873261642
15	205431	29.6	0.14798224670812
15	212919	30	0.15939862735104
15	220697	30.4	-0.21992750256322
15	228795	30.8	0.1683329413645
15	239339	31.2	-0.15909431187902
15	249530	31.6	0.30720126163215
16	390	3.2	0.973
16	484	3.6	2.4421575406324
16	613	4	1.5710690466791
16	741	4.4	1.2352334567756
16	986	4.8	2.1290620355796
16	1176	5.2	1.5882909644223
16	1433	5.6	1.7294775538039
16	1692	6	1.8668876883745
16	1913	6.4	1.7100342815328
16	2157	6.8	1.7892057718447
16	2860	7.2	1.9204054439327
16	3710	7.6	1.6765694824685
16	4237	8	2.6028967305589
16	4672	8.4	1.6787443815427
16	5090	8.8	0.973
16	5999	9.2	1.7369932565281
16	7783	9.6	1.7329338490733
16	8764	10	2.6573473057998
16	9445	10.4	0.973
16	10428	10.8	2.2908685371827
16	11060	11.2	1.6402058246472
16	11951	11.6	0.973
16	13528	12	2.7651693707379
16	14968	12.4	1.6525238206651
16	16397	12.8	1.8315265826523
16	17556	13.2	1.5150570893574
16	18966	13.6	0.973
16	20283	14	2.6548184355474
16	21906	14.4	1.3865949113521
16	24217	14.8	1.4535039146907
16	26262	15.2	2.8003268957508
16	28490	15.6	0.973
16	30641	16	1.7176371365348
16	32571	16.4	2.2786842539119
16	35494	16.8	1.8722694006745
16	37561	17.2	0.973
16	40278	17.6	2.1950176247572
16	43035	18	1.9797587886024
16	45509	18.4	2.3830446234515
16	48681	18.8	1.4301111797576
16	52187	19.2	0.973
16	55540	19.6	2.3679803572834
16	60085	20	1.9216657660735
16	63465	20.4	0.973
16	67954	20.8	1.9340645120916
16	71871	21.2	2.715408241864
16	76613	21.6	1.5060004218563
16	82472	22	2.0966691879525
16	87351	22.4	1.236027551951
16	92459	22.8	1.2850134751092
16	97271	23.2	2.1997002264296
16	102340	23.6	1.9338750116539
16	108163	24	1.3554013874713
16	113581	24.4	1.425125923547
16	120318	24.8	1.7475759241652
16	125966	25.2	2.7369791862861
16	132438	25.6	0.973
16	138083	26	2.1696223351715
16	144262	26.4	1.5625817259668
16	151165	26.8	2.0055920355229
16	157262	27.2	1.4471900380665
16	165408	27.6	2.8341631214497
16	173820	28	0.973
16	180489	28.4	1.760638906579
16	188863	28.8	2.9344930032725
16	196999	29.2	0.973
16	205431	29.6	2.1542812513986
16	212919	30	2.1921784164941
16	220697	30.4	1.1794802413281
16	228795	30.8	2.2134410594444
16	239339	31.2	1.3403519472812
16	249530	31.6	2.5918153800566
17	484	3.6	9.3700919488377
17	613	4	9.5589129640629
17	741	4.4	9.7174756032053
17	986	4.8	9.833328344808
17	1176	5.2	9.9746150603076
17	1433	5.6	10.216405352127
17	1692	6	10.439934820555
17	1913	6.4	10.745214736009
17	2157	6.8	10.920708746837
17	2860	7.2	10.869086726958
17	3710	7.6	10.880031279539
17	4237	8	10.966032961313
17	4672	8.4	10.899689412511
17	5090	8.8	10.891343983283
17	5999	9.2	11.011714381042
17	7783	9.6	10.820014996274
17	8764	10	10.90441912462
17	9445	10.4	11.086561407441
17	10428	10.8	10.921246616428
17	11060	11.2	10.924519002524
17	11951	11.6	11.083640427599
17	13528	12	10.793248084695
17	14968	12.4	11.060158033751
17	16397	12.8	10.924796344111
17	17556	13.2	10.976539727365
17	18966	13.6	10.955390151864
17	20283	14	11.050159402666
17	21906	14.4	10.940904733349
17	24217	14.8	10.926103477404
17	26262	15.2	10.954189796364
17	28490	15.6	10.9367235348
17	30641	16	11.099132402791
17	32571	16.4	11.103466741131
17	35494	16.8	10.982266477094
17	37561	17.2	10.842436814613
17	40278	17.6	11.096550073838
17	43035	18	11.057907489371
17	45509	18.4	10.950390633931
17	48681	18.8	11.015649684835
17	52187	19.2	11.006524177771
17	55540	19.6	10.910544861715
17	60085	20	10.971141608879
17	63465	20.4	11.066319430377
17	67954	20.8	10.915148266396
17	71871	21.2	11.007736203531
17	76613	21.6	11.063553171689
17	82472	22	11.024969508852
17	87351	22.4	10.970874910746
17	92459	22.8	11.055435620612
17	97271	23.2	11.014942111112
17	102340	23.6	11.091547965994
17	108163	24	10.956607298777
17	113581	24.4	11.092999786083
17	120318	24.8	10.923992735531
17	125966	25.2	11.096385184759
17	132438	25.6	10.981995168971
17	138083	26	10.96235468382
17	144262	26.4	11.045997576889
17	151165	26.8	10.999202016898
17	157262	27.2	10.928714658086
17	165408	27.6	10.960090034484
17	173820	28	11.100261941869
17	180489	28.4	11.053460070621
17	188863	28.8	10.99457195065
17	196999	29.2	10.926093712579
17	205431	29.6	10.990710976016
17	212919	30	10.977776496941
17	220697	30.4	11.037562188497
17	228795	30.8	11.02364301471
17	239339	31.2	10.970350303631
17	249530	31.6	10.953813772919
18	613	4	0.47205253806314
18	741	4.4	0.39640659785586
18	986	4.8	0.28963185400676
18	1176	5.2	0.35321678874902
18	1433	5.6	0.60447572954782
18	1692	6	0.55882367107102
18	1913	6.4	0.76319978863467
18	2157	6.8	0.43873502706907
18	2860	7.2	-0.12905504969555
18	3710	7.6	0.027361381451043
18	4237	8	0.21500420443589
18	4672	8.4	-0.16585887200629
18	5090	8.8	-0.020863573069914
18	5999	9.2	0.30092599439854
18	7783	9.6	-0.47924846191909
18	8764	10	0.21101032086366
18	9445	10.4	0.45535570705197
18	10428	10.8	-0.41328697753117
18	11060	11.2	0.0081809652403431
18	11951	11.6	0.39780356268591
18	13528	12	-0.72598085726038
18	14968	12.4	0.66727487264048
18	16397	12.8	-0.33840422409994
18	17556	13.2	0.12935845813666
18	18966	13.6	-0.052873938753555
18	20283	14	0.23692312700445
18	21906	14.4	-0.27313667329157
18	24217	14.8	-0.037003139864167
18	26262	15.2	0.070215797401034
18	28490	15.6	-0.043665653909555
18	30641	16	0.40602216997649
18	32571	16.4	0.010835845851163
18	35494	16.8	-0.30300066009234
18	37561	17.2	-0.34957415620394
18	40278	17.6	0.63528314806299
18	43035	18	-0.096606461167932
18	45509	18.4	-0.26879213859826
18	48681	18.8	0.16314762725961
18	52187	19.2	-0.02281376766041
18	55540	19.6	-0.23994829013922
18	60085	20	0.1514918679089
18	63465	20.4	0.23794455374601
18	67954	20.8	-0.37792790995445
18	71871	21.2	0.23146984283812
18	76613	21.6	0.13954242039472
18	82472	22	-0.09645915709132
18	87351	22.4	-0.13523649526598
18	92459	22.8	0.21140177466441
18	97271	23.2	-0.10123377374839
18	102340	23.6	0.19151463720482
18	108163	24	-0.33735166804399
18	113581	24.4	0.34098121826537
18	120318	24.8	-0.42251762637789
18	125966	25.2	0.43098112306944
18	132438	25.6	-0.28597503947094
18	138083	26	-0.04910121287685
18	144262	26.4	0.20910723267266
18	151165	26.8	-0.11698889997916
18	157262	27.2	-0.1762183970282
18	165408	27.6	0.07843844099463
18	173820	28	0.3504297684617
18	180489	28.4	-0.11700467811897
18	188863	28.8	-0.14722029992845
18	196999	29.2	-0.17119559517596
18	205431	29.6	0.16154315859201
18	212919	30	-0.032336197687597
18	220697	30.4	0.14946422888897
18	228795	30.8	-0.03479793446604
18	239339	31.2	-0.1332317776978
18	249530	31.6	-0.041341326781548
19	613	4	2.7392744660036
19	741	4.4	2.5918884621214
19	986	4.8	2.3585749902081
19	1176	5.2	2.5319441468108
19	1433	5.6	3.1896585301851
19	1692	6	3.124751716057
19	1913	6.4	3.7193376585663
19	2157	6.8	2.9118341684233
19	2860	7.2	1.4148898500454
19	3710	7.6	1.8255736764964
19	4237	8	2.329038307558
19	4672	8.4	1.3197418634732
19	5090	8.8	1.6999839787854
19	5999	9.2	2.5631590092301
19	7783	9.6	0.973
19	8764	10	2.310335812701
19	9445	10.4	2.9873449144404
19	10428	10.8	0.973
19	11060	11.2	1.7789801897298
19	11951	11.6	2.8330531506739
19	13528	12	0.973
19	14968	12.4	3.547146572824
19	16397	12.8	0.973
19	17556	13.2	2.1038774259556
19	18966	13.6	1.6203540774828
19	20283	14	2.3986529174765
19	21906	14.4	0.973
19	24217	14.8	1.6601337866197
19	26262	15.2	1.9452234940072
19	28490	15.6	1.6433423681367
19	30641	16	2.8577977558324
19	32571	16.4	1.8010858923805
19	35494	16.8	0.973
19	37561	17.2	0.973
19	40278	17.6	3.4704377855218
19	43035	18	1.5108898898893
19	45509	18.4	0.973
19	48681	18.8	2.1979964494989
19	52187	19.2	1.703614755367
19	55540	19.6	0.973
19	60085	20	2.1617903084991
19	63465	20.4	2.4036269741853
19	67954	20.8	0.973
19	71871	21.2	2.3782872000077
19	76613	21.6	2.1408698253702
19	82472	22	1.5093463533016
19	87351	22.4	1.4036545073175
19	92459	22.8	2.331389269055
19	97271	23.2	1.4960835574758
19	102340	23.6	2.2830388125375
19	108163	24	0.973
19	113581	24.4	2.6828112551712
19	120318	24.8	0.973
19	125966	25.2	2.9240485943317
19	132438	25.6	0.973
19	138083	26	1.6308003705349
19	144262	26.4	2.3240254470995
19	151165	26.8	1.4534159620734
19	157262	27.2	1.2936549133495
19	165408	27.6	1.9675234226671
19	173820	28	2.7092825961275
19	180489	28.4	1.4562897592481
19	188863	28.8	1.373064080892
19	196999	29.2	1.3067790380967
19	205431	29.6	2.1907262299989
19	212919	30	1.6762304277176
19	220697	30.4	2.1642548820784
19	228795	30.8	1.6730837657083
19	239339	31.2	1.4089289816135
19	249530	31.6	1.6506902802413
20	741	4.4	32.128
20	986	4.8	32.128
20	1176	5.2	40.923917405579
20	1433	5.6	49.700805842436
20	1692	6	58.426827511368
20	1913	6.4	67.124584022277
20	2157	6.8	75.841043247093
20	2860	7.2	84.567909033877
20	3710	7.6	93.343320535454
20	4237	8	102.07116845711
20	4672	8.4	110.71667070064
20	5090	8.8	119.39688201624
20	5999	9.2	128.03944360128
20	7783	9.6	136.74639850866
20	8764	10	145.44155590129
20	9445	10.4	154.22529505994
20	10428	10.8	162.86969610315
20	11060	11.2	171.61188009927
20	11951	11.6	180.30131251556
20	13528	12	189.05644189502
20	14968	12.4	197.79254708796
20	16397	12.8	206.48019510268
20	17556	13.2	215.13809288084
20	18966	13.6	223.8744063718
20	20283	14	232.63700994094
20	21906	14.4	241.37538952434
20	24217	14.8	250.16918330949
20	26262	15.2	258.88323894275
20	28490	15.6	267.65662006242
20	30641	16	276.39661080719
20	32571	16.4	285.07693092635
20	35494	16.8	293.72650235779
20	37561	17.2	302.42837015091
20	40278	17.6	311.13726970346
20	43035	18	319.90794048095
20	45509	18.4	328.6020288935
20	48681	18.8	337.26292102935
20	52187	19.2	346.01235215359
20	55540	19.6	354.67463742635
20	60085	20	363.35937984969
20	63465	20.4	372.05122134191
20	67954	20.8	380.72559466481
20	71871	21.2	389.39024200584
20	76613	21.6	398.12153135166
20	82472	22	406.85737072322
20	87351	22.4	415.54918869022
20	92459	22.8	424.30678917559
20	97271	23.2	432.98276781841
20	102340	23.6	441.64206666734
20	108163	24	450.41789966696
20	113581	24.4	459.12511644509
20	120318	24.8	467.82576257217
20	125966	25.2	476.6059107906
20	132438	25.6	485.36746254139
20	138083	26	494.10728974729
20	144262	26.4	502.75959209914
20	151165	26.8	511.51796631535
20	157262	27.2	520.27393231075
20	165408	27.6	528.99074088716
20	173820	28	537.63656221102
20	180489	28.4	546.35252689212
20	188863	28.8	555.11918698086
20	196999	29.2	563.85090657132
20	205431	29.6	572.6473540979
20	212919	30	581.39447085358
20	220697	30.4	590.05002434305
20	228795	30.8	598.78027825798
20	239339	31.2	607.53441266127
20	249530	31.6	616.18501124207
21	741	4.4	33.25
21	986	4.8	33.25
21	1176	5.2	33.25
21	1433	5.6	33.25
21	1692	6	33.25
21	1913	6.4	33.25
21	2157	6.8	33.25
21	2860	7.2	33.25
21	3710	7.6	33.25
21	4237	8	33.25
21	4672	8.4	33.25
21	5090	8.8	33.25
21	5999	9.2	33.25
21	7783	9.6	33.25
21	8764	10	33.25
21	9445	10.4	33.25
21	10428	10.8	33.25
21	11060	11.2	33.25
21	11951	11.6	33.25
21	13528	12	33.25
21	14968	12.4	33.25
21	16397	12.8	33.25
21	17556	13.2	33.25
21	18966	13.6	33.25
21	20283	14	33.25
21	21906	14.4	33.25
21	24217	14.8	33.25
21	26262	15.2	33.25
21	28490	15.6	33.25
21	30641	16	33.25
21	32571	16.4	33.25
21	35494	16.8	33.25
21	37561	17.2	33.25
21	40278	17.6	33.25
21	43035	18	33.25
21	45509	18.4	33.25
21	48681	18.8	33.25
21	52187	19.2	33.25
21	55540	19.6	33.25
21	60085	20	33.25
21	63465	20.4	33.25
21	67954	20.8	33.25
21	71871	21.2	33.25
21	76613	21.6	33.25
21	82472	22	33.25
21	87351	22.4	33.25
21	92459	22.8	33.25
21	97271	23.2	33.25
21	102340	23.6	33.25
21	108163	24	33.25
21	113581	24.4	33.25
21	120318	24.8	33.25
21	125966	25.2	33.25
21	132438	25.6	33.25
21	138083	26	33.25
21	144262	26.4	33.25
21	151165	26.8	33.25
21	157262	27.2	33.25
21	165408	27.6	33.25
21	173820	28	33.25
21	180489	28.4	33.25
21	188863	28.8	33.25
21	196999	29.2	33.25
21	205431	29.6	33.25
21	212919	30	33.25
21	220697	30.4	33.25
21	228795	30.8	33.25
21	239339	31.2	33.25
21	249530	31.6	33.25
22	986	4.8	11.105956320176
22	1176	5.2	11.081929844515
22	1433	5.6	11.01770412744
22	1692	6	10.982015796602
22	1913	6.4	11.005630334364
22	2157	6.8	11.018769932808
22	2860	7.2	11.080065027243
22	3710	7.6	11.020010002088
22	4237	8	10.91603818628
22	4672	8.4	10.959862772226
22	5090	8.8	10.912325233631
22	5999	9.2	10.993629933558
22	7783	9.6	10.978734081602
22	8764	10	11.090579745769
22	9445	10.4	10.91464778184
22	10428	10.8	11.038111106204
22	11060	11.2	10.97150557613
22	11951	11.6	11.054456287194
22	13528	12	11.03043584967
22	14968	12.4	10.969252543841
22	16397	12.8	10.931689113835
22	17556	13.2	11.030698852232
22	18966	13.6	11.063893395374
22	20283	14	11.033307554796
22	21906	14.4	11.103274981249
22	24217	14.8	11.002595496541
22	26262	15.2	11.077501413729
22	28490	15.6	11.035341849448
22	30641	16	10.960000150455
22	32571	16.4	10.921176049802
22	35494	16.8	10.987206809493
22	37561	17.2	10.996085293628
22	40278	17.6	11.074079264505
22	43035	18	10.977384359287
22	45509	18.4	10.93546986849
22	48681	18.8	11.047261520512
22	52187	19.2	10.937228879742
22	55540	19.6	10.96558386785
22	60085	20	10.974547338663
22	63465	20.4	10.952491569323
22	67954	20.8	10.94021128918
22	71871	21.2	11.024355234616
22	76613	21.6	11.030100216614
22	82472	22	10.974517635107
22	87351	22.4	11.057576370416
22	92459	22.8	10.954518488413
22	97271	23.2	10.933458142579
22	102340	23.6	11.080597221749
22	108163	24	10.993960578451
22	113581	24.4	10.985664301869
22	120318	24.8	11.086045730337
22	125966	25.2	11.062565341908
22	132438	25.6	11.035135360984
22	138083	26	10.924624181623
22	144262	26.4	11.058553303303
22	151165	26.8	11.055512620453
22	157262	27.2	11.006071434859
22	165408	27.6	10.916441065483
22	173820	28	11.005005910471
22	180489	28.4	11.06901526357
22	188863	28.8	11.024898472792
22	196999	29.2	11.106625664877
22	205431	29.6	11.044339337982
22	212919	30	10.928729153369
22	220697	30.4	11.023047872391
22	228795	30.8	11.053200004147
22	239339	31.2	10.922472955557
22	249530	31.6	10.99331916281
23	1176	5.2	32.128
23	1433	5.6	32.128
23	1692	6	40.800533283488
23	1913	6.4	49.580918614765
23	2157	6.8	58.230403058056
23	2860	7.2	67.00000801468
23	3710	7.6	75.796151710674
23	4237	8	84.445782015549
23	4672	8.4	93.134397234194
23	5090	8.8	101.90019263643
23	5999	9.2	110.69322604902
23	7783	9.6	119.46679462245
23	8764	10	128.21237421584
23	9445	10.4	136.90654995994
23	10428	10.8	145.56656411452
23	11060	11.2	154.32088749214
23	11951	11.6	162.97455899324
23	13528	12	171.6824490684
23	14968	12.4	180.43572714359
23	16397	12.8	189.12748100377
23	17556	13.2	197.7846685229
23	18966	13.6	206.53667450976
23	20283	14	215.23130303296
23	21906	14.4	223.91699682685
23	24217	14.8	232.6600358352
23	26262	15.2	241.43677963298
23	28490	15.6	250.12276381132
23	30641	16	258.79400448801
23	32571	16.4	267.43860188049
23	35494	16.8	276.20604243086
23	37561	17.2	284.92595826593
23	40278	17.6	293.67566617863
23	43035	18	302.4655943593
23	45509	18.4	311.19284877992
23	48681	18.8	319.94127806419
23	52187	19.2	328.66814710824
23	55540	19.6	337.39999693056
23	60085	20	346.13638107348
23	63465	20.4	354.92228695982
23	67954	20.8	363.59703873883
23	71871	21.2	372.31818344964
23	76613	21.6	380.96178167475
23	82472	22	389.62433053892
23	87351	22.4	398.30851639102
23	92459	22.8	406.99247257962
23	97271	23.2	415.7109127964
23	102340	23.6	424.43719162521
23	108163	24	433.1513811093
23	113581	24.4	441.83579295574
23	120318	24.8	450.56234376587
23	125966	25.2	459.21308312389
23	132438	25.6	467.86246736099
23	138083	26	476.64082821182
23	144262	26.4	485.39426588893
23	151165	26.8	494.0468711294
23	157262	27.2	502.78926690534
23	165408	27.6	511.55072860049
23	173820	28	520.28371875922
23	180489	28.4	529.01920733414
23	188863	28.8	537.76312873741
23	196999	29.2	546.55836359721
23	205431	29.6	555.35705540806
23	212919	30	564.14177910847
23	220697	30.4	572.7952055112
23	228795	30.8	581.55513754877
23	239339	31.2	590.24910116385
23	249530	31.6	598.95460250335
24	1176	5.2	26.65
24	1433	5.6	26.65
24	1692	6	26.65
24	1913	6.4	26.65
24	2157	6.8	26.65
24	2860	7.2	26.65
24	3710	7.6	26.65
24	4237	8	26.65
24	4672	8.4	26.65
24	5090	8.8	26.65
24	5999	9.2	26.65
24	7783	9.6	26.65
24	8764	10	26.65
24	9445	10.4	26.65
24	10428	10.8	26.65
24	11060	11.2	26.65
24	11951	11.6	26.65
24	13528	12	26.65
24	14968	12.4	26.65
24	16397	12.8	26.65
24	17556	13.2	26.65
24	18966	13.6	26.65
24	20283	14	26.65
24	21906	14.4	26.65
24	24217	14.8	29.95
24	26262	15.2	29.95
24	28490	15.6	29.95
24	30641	16	29.95
24	32571	16.4	29.95
24	35494	16.8	29.95
24	37561	17.2	29.95
24	40278	17.6	29.95
24	43035	18	29.95
24	45509	18.4	29.95
24	48681	18.8	29.95
24	52187	19.2	29.95
24	55540	19.6	29.95
24	60085	20	29.95
24	63465	20.4	29.95
24	67954	20.8	29.95
24	71871	21.2	29.95
24	76613	21.6	29.95
24	82472	22	29.95
24	87351	22.4	29.95
24	92459	22.8	29.95
24	97271	23.2	29.95
24	102340	23.6	29.95
24	108163	24	29.95
24	113581	24.4	29.95
24	120318	24.8	29.95
24	125966	25.2	29.95
24	132438	25.6	29.95
24	138083	26	29.95
24	144262	26.4	29.95
24	151165	26.8	29.95
24	157262	27.2	29.95
24	165408	27.6	29.95
24	173820	28	29.95
24	180489	28.4	29.95
24	188863	28.8	29.95
24	196999	29.2	29.95
24	205431	29.6	29.95
24	212919	30	29.95
24	220697	30.4	29.95
24	228795	30.8	29.95
24	239339	31.2	29.95
24	249530	31.6	29.95
25	1176	5.2	-0.06006618915126
25	1433	5.6	-0.16056429268792
25	1692	6	-0.089220827096144
25	1913	6.4	0.059036344406196
25	2157	6.8	0.03284899611026
25	2860	7.2	0.15323773608543
25	3710	7.6	-0.15013756288681
25	4237	8	-0.25992953951936
25	4672	8.4	0.10956146486569
25	5090	8.8	-0.11884384648875
25	5999	9.2	0.20326174981892
25	7783	9.6	-0.037239629891701
25	8764	10	0.27961416041944
25	9445	10.4	-0.43982990982476
25	10428	10.8	0.30865831091068
25	11060	11.2	-0.16651382518466
25	11951	11.6	0.2073767776601
25	13528	12	-0.060051093809306
25	14968	12.4	-0.15295826457441
25	16397	12.8	-0.093908575014212
25	17556	13.2	0.24752434599213
25	18966	13.6	0.082986357854677
25	20283	14	-0.076464601443149
25	21906	14.4	0.17491856613197
25	24217	14.8	-0.25169871177059
25	26262	15.2	0.18726479297039
25	28490	15.6	-0.10539891070221
25	30641	16	-0.18835424748249
25	32571	16.4	-0.097060251631778
25	35494	16.8	0.16507689922582
25	37561	17.2	0.022196210338734
25	40278	17.6	0.1949849271914
25	43035	18	-0.24173726304435
25	45509	18.4	-0.10478622699156
25	48681	18.8	0.27947913005482
25	52187	19.2	-0.27508160192519
25	55540	19.6	0.070887470268644
25	60085	20	0.022408677032217
25	63465	20.4	-0.05513942334801
25	67954	20.8	-0.030700700357555
25	71871	21.2	0.21035986358765
25	76613	21.6	0.014362454996446
25	82472	22	-0.13895645376761
25	87351	22.4	0.20764683827292
25	92459	22.8	-0.25764470500872
25	97271	23.2	-0.052650864585302
25	102340	23.6	0.36784769792575
25	108163	24	-0.21659160824492
25	113581	24.4	-0.020740691456012
25	120318	24.8	0.25095357117243
25	125966	25.2	-0.058700971072536
25	132438	25.6	-0.068574952310883
25	138083	26	-0.27627794840373
25	144262	26.4	0.33482280420139
25	151165	26.8	-0.0076017071260104
25	157262	27.2	-0.12360296398402
25	165408	27.6	-0.22407592344098
25	173820	28	0.22141211247071
25	180489	28.4	0.16002338274848
25	188863	28.8	-0.11029197694734
25	196999	29.2	0.20431798021309
25	205431	29.6	-0.15571581723634
25	212919	30	-0.28902546153404
25	220697	30.4	0.23579679755494
25	228795	30.8	0.075380329391921
25	239339	31.2	-0.32681762147695
25	249530	31.6	0.17711551813409
26	1176	5.2	1.6098950161366
26	1433	5.6	1.3387039556265
26	1692	6	1.5259889305209
26	1913	6.4	1.9206422543327
26	2157	6.8	1.852363530528
26	2860	7.2	2.1793531424155
26	3710	7.6	1.3664950950431
26	4237	8	0.973
26	4672	8.4	2.0497066789311
26	5090	8.8	1.4439062731314
26	5999	9.2	2.3016103642911
26	7783	9.6	1.6633272752305
26	8764	10	2.5183894335741
26	9445	10.4	0.973
26	10428	10.8	2.5878053418832
26	11060	11.2	1.3209839984719
26	11951	11.6	2.32053587071
26	13528	12	1.6064520359587
26	14968	12.4	1.3567259228324
26	16397	12.8	1.5106188400937
26	17556	13.2	2.4241278496766
26	18966	13.6	1.9901082313785
26	20283	14	1.5630019021167
26	21906	14.4	2.2401367799739
26	24217	14.8	0.973
26	26262	15.2	2.2698888756078
26	28490	15.6	1.486179893539
26	30641	16	1.2628188499416
26	32571	16.4	1.5017065570977
26	35494	16.8	2.1996605451649
26	37561	17.2	1.8220974293414
26	40278	17.6	2.2900569073554
26	43035	18	0.973
26	45509	18.4	1.4821734246531
26	48681	18.8	2.51155029831
26	52187	19.2	0.973
26	55540	19.6	1.9481202902407
26	60085	20	1.8207848545795
26	63465	20.4	1.6141749370416
26	67954	20.8	1.6777728450242
26	71871	21.2	2.3244884415644
26	76613	21.6	1.8042395105133
26	82472	22	1.3939942916573
26	87351	22.4	2.3216676921876
26	92459	22.8	0.973
26	97271	23.2	1.6194352956665
26	102340	23.6	2.7525161553597
26	108163	24	1.1892334313696
26	113581	24.4	1.7075127188544
26	120318	24.8	2.4411371289086
26	125966	25.2	1.6122230520326
26	132438	25.6	1.5841003339099
26	138083	26	0.973
26	144262	26.4	2.6607349244997
26	151165	26.8	1.7478913372852
26	157262	27.2	1.4362405690255
26	165408	27.6	0.973
26	173820	28	2.3512363438118
26	180489	28.4	2.1961380671031
26	188863	28.8	1.4725883752558
26	196999	29.2	2.3192474979689
26	205431	29.6	1.3527614984267
26	212919	30	0.973
26	220697	30.4	2.3918896681656
26	228795	30.8	1.9687550030766
26	239339	31.2	0.973
26	249530	31.6	2.2322981777625
27	1433	5.6	10.950168287233
27	1692	6	11.086345115248
27	1913	6.4	10.921066216277
27	2157	6.8	11.072733531091
27	2860	7.2	11.106242040396
27	3710	7.6	10.921250384944
27	4237	8	10.970473760916
27	4672	8.4	11.067923487667
27	5090	8.8	11.102314914893
27	5999	9.2	11.077738097766
27	7783	9.6	11.042398476498
27	8764	10	10.97749462639
27	9445	10.4	10.934361306289
27	10428	10.8	11.053438608106
27	11060	11.2	10.926352905426
27	11951	11.6	10.994810700966
27	13528	12	11.052118781805
27	14968	12.4	10.974436692139
27	16397	12.8	10.93079232214
27	17556	13.2	11.050512609668
27	18966	13.6	10.978066317169
27	20283	14	10.966785093294
27	21906	14.4	11.039190667113
27	24217	14.8	11.081747219423
27	26262	15.2	10.967151740324
27	28490	15.6	10.948536207937
27	30641	16	10.914895697581
27	32571	16.4	11.070000694916
27	35494	16.8	11.009994741241
27	37561	17.2	11.047611000892
27	40278	17.6	11.098394167507
27	43035	18	11.019260632098
27	45509	18.4	11.045996571044
27	48681	18.8	11.018774045529
27	52187	19.2	11.025062906966
27	55540	19.6	11.030788059244
27	60085	20	11.09331551305
27	63465	20.4	10.952969417945
27	67954	20.8	11.011546352031
27	71871	21.2	10.913634122619
27	76613	21.6	10.937561697178
27	82472	22	10.964881126387
27	87351	22.4	10.964591147229
27	92459	22.8	11.008131586844
27	97271	23.2	11.018028824255
27	102340	23.6	11.002764500109
27	108163	24	10.965166472774
27	113581	24.4	11.018372235019
27	120318	24.8	10.92265070457
27	125966	25.2	10.920939693311
27	132438	25.6	11.08378895306
27	138083	26	11.052320299381
27	144262	26.4	10.925006616758
27	151165	26.8	11.03837850498
27	157262	27.2	11.062451635292
27	165408	27.6	11.026502725659
27	173820	28	11.029657291565
27	180489	28.4	11.040304802116
27	188863	28.8	11.105094519947
27	196999	29.2	11.109459357141
27	205431	29.6	11.091822854048
27	212919	30	10.926043437785
27	220697	30.4	11.060520249456
27	228795	30.8	10.977226786725
27	239339	31.2	10.991794620585
27	249530	31.6	11.023543703407
28	1692	6	0.34044207003899
28	1913	6.4	-0.41319724742789
28	2157	6.8	0.37916828703601
28	2860	7.2	0.083771273260935
28	3710	7.6	-0.46247913863045
28	4237	8	0.1230584399309
28	4672	8.4	0.24362431687769
28	5090	8.8	0.085978568065914
28	5999	9.2	-0.061442042817363
28	7783	9.6	-0.088349053170531
28	8764	10	-0.16225962527096
28	9445	10.4	-0.10783330025152
28	10428	10.8	0.29769325454254
28	11060	11.2	-0.31771425670013
28	11951	11.6	0.17114448884968
28	13528	12	0.14327020209748
28	14968	12.4	-0.19420522416477
28	16397	12.8	-0.10911092499736
28	17556	13.2	0.29930071881972
28	18966	13.6	-0.1811157312477
28	20283	14	-0.028203059686347
28	21906	14.4	0.18101393454708
28	24217	14.8	0.10639138077386
28	26262	15.2	-0.2864886977477
28	28490	15.6	-0.046538830967622
28	30641	16	-0.084101275890132
28	32571	16.4	0.3877624933375
28	35494	16.8	-0.15001488418784
28	37561	17.2	0.094040649128146
28	40278	17.6	0.12695791653823
28	43035	18	-0.19783383852336
28	45509	18.4	0.066839847364464
28	48681	18.8	-0.068056313786657
28	52187	19.2	0.015722153591922
28	55540	19.6	0.014312880695799
28	60085	20	0.15631863451563
28	63465	20.4	-0.35086523776408
28	67954	20.8	0.1464423352154
28	71871	21.2	-0.24478057352826
28	76613	21.6	0.059818936395462
28	82472	22	0.06829857302364
28	87351	22.4	-0.00072494789492339
28	92459	22.8	0.10885109903756
28	97271	23.2	0.024743093526922
28	102340	23.6	-0.038160810363479
28	108163	24	-0.093995068338701
28	113581	24.4	0.1330144056119
28	120318	24.8	-0.23930382612162
28	125966	25.2	-0.0042775281472096
28	132438	25.6	0.40712314937263
28	138083	26	-0.078671634197236
28	144262	26.4	-0.31828420655802
28	151165	26.8	0.28342972055543
28	157262	27.2	0.060182825778612
28	165408	27.6	-0.089872274082152
28	173820	28	0.0078864147653812
28	180489	28.4	0.02661877637729
28	188863	28.8	0.16197429457679
28	196999	29.2	0.010912092984654
28	205431	29.6	-0.044091257732362
28	212919	30	-0.41444854065776
28	220697	30.4	0.33619202917907
28	228795	30.8	-0.20823365682736
28	239339	31.2	0.036419584648684
28	249530	31.6	0.079372707055883
29	1692	6	2.6802760674963
29	1913	6.4	0.973
29	2157	6.8	2.781381616546
29	2860	7.2	1.9965411495736
29	3710	7.6	0.973
29	4237	8	2.0865367417877
29	4672	8.4	2.4190008134371
29	5090	8.8	2.0020441875127
29	5999	9.2	1.6059377094615
29	7783	9.6	1.5319527561581
29	8764	10	1.3324872847048
29	9445	10.4	1.4740816174691
29	10428	10.8	2.5609935940134
29	11060	11.2	0.973
29	11951	11.6	2.2166620270788
29	13528	12	2.1494753894049
29	14968	12.4	1.2478662798418
29	16397	12.8	1.4705183081666
29	17556	13.2	2.5648244286333
29	18966	13.6	1.2826237375508
29	20283	14	1.6863429972234
29	21906	14.4	2.2483833445753
29	24217	14.8	2.0544410461995
29	26262	15.2	0.973
29	28490	15.6	1.6365987442966
29	30641	16	1.5354314786366
29	32571	16.4	2.8038354511356
29	35494	16.8	1.3663630954792
29	37561	17.2	2.017877336264
29	40278	17.6	2.1112479189439
29	43035	18	1.2397966173146
29	45509	18.4	1.945297416757
29	48681	18.8	1.5844073727203
29	52187	19.2	1.8074220816148
29	55540	19.6	1.8041664772451
29	60085	20	2.1891698051938
29	63465	20.4	0.973
29	67954	20.8	2.1531670133191
29	71871	21.2	0.973
29	76613	21.6	1.9161822179695
29	82472	22	1.9412097126871
29	87351	22.4	1.7587889498434
29	92459	22.8	2.053039019894
29	97271	23.2	1.8307730097264
29	102340	23.6	1.6626326428176
29	108163	24	1.5123596749074
29	113581	24.4	2.1183098197263
29	120318	24.8	0.973
29	125966	25.2	1.7458920326719
29	132438	25.6	2.8579740274604
29	138083	26	1.5583325752665
29	144262	26.4	0.973
29	151165	26.8	2.5207328235794
29	157262	27.2	1.9291655659279
29	165408	27.6	1.5269402268684
29	173820	28	1.7869874075004
29	180489	28.4	1.8377220501595
29	188863	28.8	2.2057203211435
29	196999	29.2	1.8017996303152
29	205431	29.6	1.6532691100222
29	212919	30	0.973
29	220697	30.4	2.6647049880463
29	228795	30.8	1.2108510568589
29	239339	31.2	1.859401810916
29	249530	31.6	1.9763906418331
30	1913	6.4	32.128
30	2157	6.8	32.128
30	2860	7.2	39.628106810906
30	3710	7.6	47.393669686758
30	4237	8	55.317527489409
30	4672	8.4	63.367724955128
30	5090	8.8	71.48802943434
30	5999	9.2	79.733109649719
30	7783	9.6	87.981227993498
30	8764	10	96.426601837602
30	9445	10.4	104.78078188918
30	10428	10.8	113.20183644487
30	11060	11.2	121.5510456991
30	11951	11.6	130.16214855909
30	13528	12	138.70882193316
30	14968	12.4	147.28436834328
30	16397	12.8	155.86557667819
30	17556	13.2	164.42009112719
30	18966	13.6	172.93439923821
30	20283	14	181.58569948338
30	21906	14.4	190.17936348364
30	24217	14.8	198.79031887968
30	26262	15.2	207.43356658959
30	28490	15.6	216.20901397813
30	30641	16	225.00287155212
30	32571	16.4	233.68082953917
30	35494	16.8	242.40653890454
30	37561	17.2	251.16797668266
30	40278	17.6	259.93186167606
30	43035	18	268.59143055397
30	45509	18.4	277.27734255982
30	48681	18.8	286.02503277695
30	52187	19.2	294.67408927477
30	55540	19.6	303.4391721661
30	60085	20	312.20584142947
30	63465	20.4	320.99773607112
30	67954	20.8	329.76808568815
30	71871	21.2	338.46734273516
30	76613	21.6	347.26582151524
30	82472	22	355.93998406784
30	87351	22.4	364.69085827424
30	92459	22.8	373.46915139939
30	97271	23.2	382.25926666464
30	102340	23.6	390.94510235082
30	108163	24	399.6413474066
30	113581	24.4	408.42566342896
30	120318	24.8	417.07371396217
30	125966	25.2	425.75756686238
30	132438	25.6	434.54210969317
30	138083	26	443.26345137424
30	144262	26.4	451.95429341699
30	151165	26.8	460.63640608394
30	157262	27.2	469.42628243776
30	165408	27.6	478.13743321414
30	173820	28	486.92070813706
30	180489	28.4	495.60758449657
30	188863	28.8	504.32273840985
30	196999	29.2	513.042229218
30	205431	29.6	521.7480928638
30	212919	30	530.44848298761
30	220697	30.4	539.18596405442
30	228795	30.8	547.97540921386
30	239339	31.2	556.62789799353
30	249530	31.6	565.27105234376
31	1913	6.4	26.65
31	2157	6.8	26.65
31	2860	7.2	26.65
31	3710	7.6	26.65
31	4237	8	26.65
31	4672	8.4	26.65
31	5090	8.8	26.65
31	5999	9.2	26.65
31	7783	9.6	26.65
31	8764	10	26.65
31	9445	10.4	26.65
31	10428	10.8	26.65
31	11060	11.2	26.65
31	11951	11.6	26.65
31	13528	12	26.65
31	14968	12.4	26.65
31	16397	12.8	26.65
31	17556	13.2	26.65
31	18966	13.6	26.65
31	20283	14	26.65
31	21906	14.4	26.65
31	24217	14.8	26.65
31	26262	15.2	26.65
31	28490	15.6	26.65
31	30641	16	26.65
31	32571	16.4	26.65
31	35494	16.8	26.65
31	37561	17.2	26.65
31	40278	17.6	26.65
31	43035	18	26.65
31	45509	18.4	26.65
31	48681	18.8	26.65
31	52187	19.2	26.65
31	55540	19.6	26.65
31	60085	20	26.65
31	63465	20.4	26.65
31	67954	20.8	26.65
31	71871	21.2	26.65
31	76613	21.6	26.65
31	82472	22	26.65
31	87351	22.4	26.65
31	92459	22.8	26.65
31	97271	23.2	26.65
31	102340	23.6	26.65
31	108163	24	26.65
31	113581	24.4	26.65
31	120318	24.8	26.65
31	125966	25.2	26.65
31	132438	25.6	26.65
31	138083	26	26.65
31	144262	26.4	26.65
31	151165	26.8	26.65
31	157262	27.2	26.65
31	165408	27.6	26.65
31	173820	28	26.65
31	180489	28.4	26.65
31	188863	28.8	26.65
31	196999	29.2	26.65
31	205431	29.6	26.65
31	212919	30	26.65
31	220697	30.4	26.65
31	228795	30.8	26.65
31	239339	31.2	26.65
31	249530	31.6	26.65
32	2157	6.8	9.4698318319517
32	2860	7.2	9.8050036311271
32	3710	7.6	10.004870962943
32	4237	8	10.164390739543
32	4672	8.4	10.252909695976
32	5090	8.8	10.410454817397
32	5999	9.2	10.414290838105
32	7783	9.6	10.663350813263
32	8764	10	10.548207135833
32	9445	10.4	10.632644641021
32	10428	10.8	10.541930876557
32	11060	11.2	10.8726046212
32	11951	11.6	10.791254260186
32	13528	12	10.827710113781
32	14968	12.4	10.834859008732
32	16397	12.8	10.801154607318
32	17556	13.2	10.750389029071
32	18966	13.6	10.923358895411
32	20283	14	10.85058585892
32	21906	14.4	10.872418429336
32	24217	14.8	10.913191552917
32	26262	15.2	11.080110339066
32	28490	15.6	11.103355522724
32	30641	16	10.957017660411
32	32571	16.4	11.017309804764
32	35494	16.8	11.062421437018
32	37561	17.2	11.065511355307
32	40278	17.6	10.933799088271
32	43035	18	10.967060613437
32	45509	18.4	11.045063405475
32	48681	18.8	10.92052588108
32	52187	19.2	11.067023852691
32	55540	19.6	11.069026847687
32	60085	20	11.100877072792
32	63465	20.4	11.073673758879
32	67954	20.8	10.983910412891
32	71871	21.2	11.109190378888
32	76613	21.6	10.952225445202
32	82472	22	11.049083593944
32	87351	22.4	11.083703440838
32	92459	22.8	11.098630385417
32	97271	23.2	10.966964250235
32	102340	23.6	10.980107393665
32	108163	24	11.091308109034
32	113581	24.4	10.919255723748
32	120318	24.8	10.964460732592
32	125966	25.2	11.091594483322
32	132438	25.6	11.011795051852
32	138083	26	10.973285407517
32	144262	26.4	10.962263468364
32	151165	26.8	11.09832872957
32	157262	27.2	10.998927747961
32	165408	27.6	11.089993589548
32	173820	28	10.968278231695
32	180489	28.4	11.003982213736
32	188863	28.8	11.009458091101
32	196999	29.2	10.992252078038
32	205431	29.6	10.985341065414
32	212919	30	11.032173064156
32	220697	30.4	11.097784292223
32	228795	30.8	10.924859570283
32	239339	31.2	10.913073674534
32	249530	31.6	11.086535903383
33	2860	7.2	32.128
33	3710	7.6	32.128
33	4237	8	40.870173948314
33	4672	8.4	49.563678101247
33	5090	8.8	58.312834250662
33	5999	9.2	66.960056686411
33	7783	9.6	75.719055296763
33	8764	10	84.467930540392
33	9445	10.4	93.168391719219
33	10428	10.8	101.95868651186
33	11060	11.2	110.71089790429
33	11951	11.6	119.42049198797
33	13528	12	128.16915066551
33	14968	12.4	136.87536701692
33	16397	12.8	145.55803228408
33	17556	13.2	154.20623684102
33	18966	13.6	162.89836729119
33	20283	14	171.59547924406
33	21906	14.4	180.29670560044
33	24217	14.8	188.99235859128
33	26262	15.2	197.67998263932
33	28490	15.6	206.398585472
33	30641	16	215.12586431145
33	32571	16.4	223.89779817053
33	35494	16.8	232.54991009377
33	37561	17.2	241.23009636506
33	40278	17.6	249.99319388779
33	43035	18	258.67449049628
33	45509	18.4	267.43730215552
33	48681	18.8	276.0961846695
33	52187	19.2	284.89123969568
33	55540	19.6	293.64649972534
33	60085	20	302.32703140722
33	63465	20.4	310.97891396323
33	67954	20.8	319.62572125025
33	71871	21.2	328.36983946199
33	76613	21.6	337.14984739375
33	82472	22	345.80225526521
33	87351	22.4	354.48223715756
33	92459	22.8	363.14629978567
33	97271	23.2	371.80411911924
33	102340	23.6	380.59763770934
33	108163	24	389.32438294012
33	113581	24.4	398.09807359065
33	120318	24.8	406.87194233957
33	125966	25.2	415.60750283524
33	132438	25.6	424.32035964037
33	138083	26	432.96275713205
33	144262	26.4	441.69616380381
33	151165	26.8	450.45577566899
33	157262	27.2	459.17507258525
33	165408	27.6	467.90262403089
33	173820	28	476.60988590667
33	180489	28.4	485.26621100094
33	188863	28.8	493.92969260923
33	196999	29.2	502.68291211042
33	205431	29.6	511.4666288312
33	212919	30	520.24659520441
33	220697	30.4	528.99255125735
33	228795	30.8	537.6970584721
33	239339	31.2	546.34245227066
33	249530	31.6	555.09845113935
34	2860	7.2	33.25
34	3710	7.6	33.25
34	4237	8	33.25
34	4672	8.4	33.25
34	5090	8.8	33.25
34	5999	9.2	33.25
34	7783	9.6	33.25
34	8764	10	33.25
34	9445	10.4	33.25
34	10428	10.8	33.25
34	11060	11.2	33.25
34	11951	11.6	33.25
34	13528	12	33.25
34	14968	12.4	33.25
34	16397	12.8	33.25
34	17556	13.2	33.25
34	18966	13.6	33.25
34	20283	14	33.25
34	21906	14.4	33.25
34	24217	14.8	33.25
34	26262	15.2	33.25
34	28490	15.6	33.25
34	30641	16	33.25
34	32571	16.4	33.25
34	35494	16.8	36.55
34	37561	17.2	36.55
34	40278	17.6	36.55
34	43035	18	36.55
34	45509	18.4	36.55
34	48681	18.8	36.55
34	52187	19.2	36.55
34	55540	19.6	36.55
34	60085	20	36.55
34	63465	20.4	36.55
34	67954	20.8	36.55
34	71871	21.2	36.55
34	76613	21.6	36.55
34	82472	22	36.55
34	87351	22.4	36.55
34	92459	22.8	36.55
34	97271	23.2	36.55
34	102340	23.6	36.55
34	108163	24	36.55
34	113581	24.4	36.55
34	120318	24.8	36.55
34	125966	25.2	36.55
34	132438	25.6	36.55
34	138083	26	36.55
34	144262	26.4	36.55
34	151165	26.8	36.55
34	157262	27.2	36.55
34	165408	27.6	36.55
34	173820	28	36.55
34	180489	28.4	36.55
34	188863	28.8	36.55
34	196999	29.2	36.55
34	205431	29.6	36.55
34	212919	30	36.55
34	220697	30.4	36.55
34	228795	30.8	36.55
34	239339	31.2	36.55
34	249530	31.6	36.55
35	2860	7.2	0.8379294979386
35	3710	7.6	0.49966832953995
35	4237	8	0.3987994415002
35	4672	8.4	0.2212973910816
35	5090	8.8	0.39386280355219
35	5999	9.2	0.0095900517698499
35	7783	9.6	0.62264993789669
35	8764	10	-0.28785919357565
35	9445	10.4	0.21109376296891
35	10428	10.8	-0.22678441115913
35	11060	11.2	0.8266843616074
35	11951	11.6	-0.20337590253386
35	13528	12	0.091139633987622
35	14968	12.4	0.017872237375345
35	16397	12.8	-0.084261003533475
35	17556	13.2	-0.12691394561834
35	18966	13.6	0.43242466584962
35	20283	14	-0.18193259122778
35	21906	14.4	0.054581426042168
35	24217	14.8	0.10193280895021
35	26262	15.2	0.41729696537368
35	28490	15.6	0.058112959144636
35	30641	16	-0.36584465578199
35	32571	16.4	0.15073036088143
35	35494	16.8	0.11277908063493
35	37561	17.2	0.007724795723334
35	40278	17.6	-0.32928066758905
35	43035	18	0.083153812913226
35	45509	18.4	0.19500698009506
35	48681	18.8	-0.31134381098672
35	52187	19.2	0.36624492902774
35	55540	19.6	0.0050074874889106
35	60085	20	0.079625562764702
35	63465	20.4	-0.06800828478299
35	67954	20.8	-0.22440836497117
35	71871	21.2	0.31319991499186
35	76613	21.6	-0.3924123342149
35	82472	22	0.24214537185617
35	87351	22.4	0.086549617233689
35	92459	22.8	0.03731736144982
35	97271	23.2	-0.32916533795651
35	102340	23.6	0.032857858575883
35	108163	24	0.27800178842153
35	113581	24.4	-0.43013096321374
35	120318	24.8	0.11301252210978
35	125966	25.2	0.31783437682316
35	132438	25.6	-0.19949857867323
35	138083	26	-0.09627411083784
35	144262	26.4	-0.027554847882132
35	151165	26.8	0.34016315301415
35	157262	27.2	-0.24850245402194
35	165408	27.6	0.22766460396815
35	173820	28	-0.30428839463275
35	180489	28.4	0.089259955100713
35	188863	28.8	0.013689693412746
35	196999	29.2	-0.043015032657423
35	205431	29.6	-0.017277531558646
35	212919	30	0.11707999685314
35	220697	30.4	0.16402807016857
[...]
106	205431	29.6	1.5123314409149
106	212919	30	2.3302103929017
106	220697	30.4	1.6544848007095
106	228795	30.8	1.8934806042303
106	239339	31.2	0.973
106	249530	31.6	1.9275744523549
107	76613	21.6	10.919425865766
107	82472	22	11.034193245498
107	87351	22.4	10.944625926474
107	92459	22.8	10.954161605835
107	97271	23.2	11.007996629355
107	102340	23.6	11.018279208699
107	108163	24	10.918166679414
107	113581	24.4	11.030313148247
107	120318	24.8	11.09007701477
107	125966	25.2	10.993969656099
107	132438	25.6	10.953353112321
107	138083	26	10.944268616838
107	144262	26.4	10.919809478326
107	151165	26.8	10.932807546891
107	157262	27.2	11.051441193782
107	165408	27.6	11.055398219302
107	173820	28	10.932153334925
107	180489	28.4	11.050071300883
107	188863	28.8	10.965170430336
107	196999	29.2	11.006009524446
107	205431	29.6	11.052576148687
107	212919	30	11.037738864627
107	220697	30.4	11.108962076008
107	228795	30.8	11.090639209552
107	239339	31.2	10.956945882263
107	249530	31.6	10.973013112079
108	82472	22	0.28691844933201
108	87351	22.4	-0.22391829756089
108	92459	22.8	0.023839198402129
108	97271	23.2	0.13458755880129
108	102340	23.6	0.025706448359415
108	108163	24	-0.25028132321313
108	113581	24.4	0.28036617208272
108	120318	24.8	0.1494096663082
108	125966	25.2	-0.24026839667931
108	132438	25.6	-0.10154135944322
108	138083	26	-0.022711238707416
108	144262	26.4	-0.061147846281528
108	151165	26.8	0.032495171413758
108	157262	27.2	0.2965841172263
108	165408	27.6	0.009892563801257
108	173820	28	-0.30811221094336
108	180489	28.4	0.29479491489473
108	188863	28.8	-0.21225217636674
108	196999	29.2	0.10209773527458
108	205431	29.6	0.11641656060237
108	212919	30	-0.037093210150485
108	220697	30.4	0.17805802845396
108	228795	30.8	-0.045807166141461
108	239339	31.2	-0.33423331822268
108	249530	31.6	0.040168074541724
109	82472	22	2.5293811410865
109	87351	22.4	0.973
109	92459	22.8	1.8227886803882
109	97271	23.2	2.1213013907718
109	102340	23.6	1.8333531028654
109	108163	24	0.973
109	113581	24.4	2.5113768348184
109	120318	24.8	2.1703155019021
109	125966	25.2	0.973
109	132438	25.6	1.4917438063275
109	138083	26	1.6991459365901
109	144262	26.4	1.5961371804282
109	151165	26.8	1.8437339531246
109	157262	27.2	2.5577322422319
109	165408	27.6	1.7944930308347
109	173820	28	0.973
109	180489	28.4	2.5527571148058
109	188863	28.8	1.1998529561078
109	196999	29.2	2.0348967833355
109	205431	29.6	2.0779994661346
109	212919	30	1.6680152109813
109	220697	30.4	2.2492504292075
109	228795	30.8	1.6485978799308
109	239339	31.2	0.973
109	249530	31.6	1.8676160133639
110	87351	22.4	32.128
110	92459	22.8	32.128
110	97271	23.2	40.916054331646
110	102340	23.6	49.563200089963
110	108163	24	58.219129032038
110	113581	24.4	66.917496960686
110	120318	24.8	75.572656116787
110	125966	25.2	84.36918968163
110	132438	25.6	93.087038622777
110	138083	26	101.75444594967
110	144262	26.4	110.48579698341
110	151165	26.8	119.14282107856
110	157262	27.2	127.82333301937
110	165408	27.6	136.59887845881
110	173820	28	145.3041891606
110	180489	28.4	153.95692241229
110	188863	28.8	162.61677162571
110	196999	29.2	171.262423552
110	205431	29.6	179.98079009282
110	212919	30	188.68143393811
110	220697	30.4	197.44284784445
110	228795	30.8	206.15912363175
110	239339	31.2	214.89996390309
110	249530	31.6	223.60973610946
111	87351	22.4	33.25
111	92459	22.8	33.25
111	97271	23.2	33.25
111	102340	23.6	33.25
111	108163	24	33.25
111	113581	24.4	33.25
111	120318	24.8	33.25
111	125966	25.2	33.25
111	132438	25.6	33.25
111	138083	26	33.25
111	144262	26.4	33.25
111	151165	26.8	33.25
111	157262	27.2	33.25
111	165408	27.6	33.25
111	173820	28	33.25
111	180489	28.4	33.25
111	188863	28.8	33.25
111	196999	29.2	33.25
111	205431	29.6	33.25
111	212919	30	33.25
111	220697	30.4	33.25
111	228795	30.8	33.25
111	239339	31.2	33.25
111	249530	31.6	33.25
112	92459	22.8	11.096028196523
112	97271	23.2	10.918113331208
112	102340	23.6	10.929203209691
112	108163	24	10.982787788697
112	113581	24.4	10.928231257703
112	120318	24.8	11.106734299045
112	125966	25.2	11.007385026701
112	132438	25.6	10.943696119813
112	138083	26	11.024433123404
112	144262	26.4	10.93058597873
112	151165	26.8	10.960242349505
112	157262	27.2	11.080234140707
112	165408	27.6	10.9915539164
112	173820	28	10.925168247093
112	180489	28.4	10.934153047241
112	188863	28.8	10.916227179663
112	196999	29.2	11.008038561642
112	205431	29.6	10.985661420822
112	212919	30	11.06239129588
112	220697	30.4	11.005398721332
112	228795	30.8	11.036414484018
112	239339	31.2	10.997187129259
112	249530	31.6	11.09949836758
113	97271	23.2	32.128
113	102340	23.6	32.128
113	108163	24	40.800340052125
113	113581	24.4	49.56257416094
113	120318	24.8	58.211325440173
113	125966	25.2	66.913951711817
113	132438	25.6	75.672966227162
113	138083	26	84.345075380965
113	144262	26.4	93.08667063863
113	151165	26.8	101.74457344572
113	157262	27.2	110.41076588899
113	165408	27.6	119.1034558172
113	173820	28	127.83043346441
113	180489	28.4	136.61298040736
113	188863	28.8	145.4108515655
113	196999	29.2	154.05967197925
113	205431	29.6	162.79810848179
113	212919	30	171.44385191371
113	220697	30.4	180.13265215156
113	228795	30.8	188.77661508647
113	239339	31.2	197.47166315395
113	249530	31.6	206.26086161053
114	97271	23.2	36.55
114	102340	23.6	36.55
114	108163	24	36.55
114	113581	24.4	36.55
114	120318	24.8	36.55
114	125966	25.2	36.55
114	132438	25.6	36.55
114	138083	26	36.55
114	144262	26.4	36.55
114	151165	26.8	36.55
114	157262	27.2	36.55
114	165408	27.6	36.55
114	173820	28	36.55
114	180489	28.4	36.55
114	188863	28.8	36.55
114	196999	29.2	36.55
114	205431	29.6	36.55
114	212919	30	36.55
114	220697	30.4	36.55
114	228795	30.8	36.55
114	239339	31.2	36.55
114	249530	31.6	36.55
115	97271	23.2	-0.4447871632874
115	102340	23.6	0.027724696206861
115	108163	24	0.13396144751459
115	113581	24.4	-0.13639132748358
115	120318	24.8	0.44625760335475
115	125966	25.2	-0.24837318086065
115	132438	25.6	-0.15922226721886
115	138083	26	0.20184250897728
115	144262	26.4	-0.23461786168628
115	151165	26.8	0.074140926939439
115	157262	27.2	0.29997947800439
115	165408	27.6	-0.22170056076721
115	173820	28	-0.16596417326946
115	180489	28.4	0.02246200037189
115	188863	28.8	-0.044814668945037
115	196999	29.2	0.22952845494729
115	205431	29.6	-0.055942852050066
115	212919	30	0.19182468764484
115	220697	30.4	-0.14248143637087
115	228795	30.8	0.077539406716824
115	239339	31.2	-0.098068386898378
115	249530	31.6	0.25577809580136
116	97271	23.2	0.973
116	102340	23.6	1.8308473626066
116	108163	24	2.1167657947531
116	113581	24.4	1.3985288252102
116	120318	24.8	2.9668671472509
116	125966	25.2	0.973
116	132438	25.6	1.3390640636874
116	138083	26	2.3018691105939
116	144262	26.4	0.973
116	151165	26.8	1.9561871876649
116	157262	27.2	2.5712231187145
116	165408	27.6	0.973
116	173820	28	1.3205161143552
116	180489	28.4	1.8174152535815
116	188863	28.8	1.6388683166579
116	196999	29.2	2.3731784259228
116	205431	29.6	1.6143132146799
116	212919	30	2.2801217162038
116	220697	30.4	1.3861341814126
116	228795	30.8	1.9728155216875
116	239339	31.2	1.503453482092
116	249530	31.6	2.4559639555072
117	102340	23.6	10.949924308239
117	108163	24	11.063426905069
117	113581	24.4	10.920140504083
117	120318	24.8	10.988164484398
117	125966	25.2	11.059361761799
117	132438	25.6	10.949632769953
117	138083	26	11.037367749577
117	144262	26.4	10.931695463499
117	151165	26.8	10.94216217584
117	157262	27.2	10.975618596226
117	165408	27.6	11.018911170717
117	173820	28	11.089074422922
117	180489	28.4	11.108423179472
117	188863	28.8	10.920227795132
117	196999	29.2	11.033379422398
117	205431	29.6	10.916342717074
117	212919	30	10.97070737103
117	220697	30.4	10.914094614787
117	228795	30.8	10.978596044788
117	239339	31.2	11.097472798722
117	249530	31.6	11.072187468773
118	108163	24	0.28375649207737
118	113581	24.4	-0.35821600246709
118	120318	24.8	0.17005995078944
118	125966	25.2	0.17799319350161
118	132438	25.6	-0.27432247961406
118	138083	26	0.21933744905982
118	144262	26.4	-0.26418071519584
118	151165	26.8	0.02616678085178
118	157262	27.2	0.083641050965526
118	165408	27.6	0.10823143622838
118	173820	28	0.17540813051165
118	180489	28.4	0.048371891374699
118	188863	28.8	-0.4704884608509
118	196999	29.2	0.28287906816695
118	205431	29.6	-0.29259176331107
118	212919	30	0.13591163489036
118	220697	30.4	-0.14153189060744
118	228795	30.8	0.16125357500278
118	239339	31.2	0.29719188483432
118	249530	31.6	-0.063213324872775
119	108163	24	2.5253711483916
119	113581	24.4	0.973
119	120318	24.8	2.212972741696
119	125966	25.2	2.242867631445
119	132438	25.6	0.973
119	138083	26	2.3500950926462
119	144262	26.4	0.973
119	151165	26.8	1.8278802655409
119	157262	27.2	1.9828453047224
119	165408	27.6	2.052558625584
119	173820	28	2.2396769015477
119	180489	28.4	1.9019962313465
119	188863	28.8	0.973
119	196999	29.2	2.5185172562557
119	205431	29.6	0.973
119	212919	30	2.120545813679
119	220697	30.4	1.3843230617015
119	228795	30.8	2.1884988323722
119	239339	31.2	2.5664330384265
119	249530	31.6	1.6008369764374
120	113581	24.4	32.128
120	120318	24.8	32.128
120	125966	25.2	40.886144444
120	132438	25.6	49.547537460353
120	138083	26	58.344750922599
120	144262	26.4	67.105630213469
120	151165	26.8	75.897462655411
120	157262	27.2	84.63556104757
120	165408	27.6	93.35510255768
120	173820	28	102.09429569661
120	180489	28.4	110.7527495736
120	188863	28.8	119.49059615287
120	196999	29.2	128.2325097526
120	205431	29.6	136.9365276228
120	212919	30	145.67065585576
120	220697	30.4	154.44209196979
120	228795	30.8	163.23171679289
120	239339	31.2	171.99909908418
120	249530	31.6	180.79226878053
121	113581	24.4	29.95
121	120318	24.8	29.95
121	125966	25.2	29.95
121	132438	25.6	29.95
121	138083	26	29.95
121	144262	26.4	29.95
121	151165	26.8	29.95
121	157262	27.2	29.95
121	165408	27.6	29.95
121	173820	28	29.95
121	180489	28.4	29.95
121	188863	28.8	29.95
121	196999	29.2	29.95
121	205431	29.6	29.95
121	212919	30	29.95
121	220697	30.4	29.95
121	228795	30.8	29.95
121	239339	31.2	29.95
121	249530	31.6	29.95
122	120318	24.8	11.058263186868
122	125966	25.2	10.936102293376
122	132438	25.6	11.107592755361
122	138083	26	11.061716276351
122	144262	26.4	11.100798537806
122	151165	26.8	11.032952515353
122	157262	27.2	11.009522108724
122	165408	27.6	11.034334771372
122	173820	28	10.932391258832
122	180489	28.4	11.032634569788
122	188863	28.8	11.037769696619
122	196999	29.2	10.989921553284
122	205431	29.6	11.027939688079
122	212919	30	11.075045598522
122	220697	30.4	11.098011140283
122	228795	30.8	11.069927135473
122	239339	31.2	11.102486990336
122	249530	31.6	10.91825181515
123	125966	25.2	32.128
123	132438	25.6	32.128
123	138083	26	40.825940138069
123	144262	26.4	49.579591177363
123	151165	26.8	58.331736664861
123	157262	27.2	67.023126363539
123	165408	27.6	75.668920617097
123	173820	28	84.427062170081
123	180489	28.4	93.072990183997
123	188863	28.8	101.82891717858
123	196999	29.2	110.59481278627
123	205431	29.6	119.29119481403
123	212919	30	128.01068384506
123	220697	30.4	136.66599635145
123	228795	30.8	145.41689204713
123	239339	31.2	154.06898220376
123	249530	31.6	162.72715888886
124	125966	25.2	33.25
124	132438	25.6	33.25
124	138083	26	33.25
124	144262	26.4	33.25
124	151165	26.8	33.25
124	157262	27.2	33.25
124	165408	27.6	33.25
124	173820	28	33.25
124	180489	28.4	33.25
124	188863	28.8	33.25
124	196999	29.2	33.25
124	205431	29.6	33.25
124	212919	30	33.25
124	220697	30.4	33.25
124	228795	30.8	33.25
124	239339	31.2	33.25
124	249530	31.6	33.25
125	125966	25.2	-0.305402233731
125	132438	25.6	0.42872615496163
125	138083	26	-0.11469119752292
125	144262	26.4	0.097705653635787
125	151165	26.8	-0.1696150561329
125	157262	27.2	-0.05857601657044
125	165408	27.6	0.062031656620092
125	173820	28	-0.25485878135078
125	180489	28.4	0.25060827739071
125	188863	28.8	0.012837817077522
125	196999	29.2	-0.11962035833858
125	205431	29.6	0.095045336987822
125	212919	30	0.11776477610693
125	220697	30.4	0.057413854403419
125	228795	30.8	-0.070210012025198
125	239339	31.2	0.081399637158026
125	249530	31.6	-0.46058793796692
126	125966	25.2	0.973
126	132438	25.6	2.920099777627
126	138083	26	1.4629024422023
126	144262	26.4	2.0332612075956
126	151165	26.8	1.3152977251654
126	157262	27.2	1.6089557804224
126	165408	27.6	1.9313667762049
126	173820	28	0.973
126	180489	28.4	2.432601743529
126	188863	28.8	1.8008391139114
126	196999	29.2	1.4459494252475
126	205431	29.6	2.0184885708418
126	212919	30	2.0840745547042
126	220697	30.4	1.9252006605753
126	228795	30.8	1.5820194645321
126	239339	31.2	1.989810089689
126	249530	31.6	0.973
127	132438	25.6	10.982247649077
127	138083	26	11.052589696078
127	144262	26.4	11.050688746842
127	151165	26.8	10.97397689227
127	157262	27.2	10.916406885805
127	165408	27.6	11.058259536596
127	173820	28	10.916575775146
127	180489	28.4	11.055463377004
127	188863	28.8	11.068050009701
127	196999	29.2	10.980280338079
127	205431	29.6	11.009455847265
127	212919	30	10.928424881808
127	220697	30.4	11.049110726863
127	228795	30.8	10.924356258372
127	239339	31.2	10.932041269066
127	249530	31.6	10.922833584147
128	138083	26	0.17585511750076
128	144262	26.4	-0.0047523730900112
128	151165	26.8	-0.19177963642869
128	157262	27.2	-0.14392501616385
128	165408	27.6	0.35463162697852
128	173820	28	-0.35420940362383
128	180489	28.4	0.34721900464501
128	188863	28.8	0.031466581742277
128	196999	29.2	-0.21942417905666
128	205431	29.6	0.072938772966151
128	212919	30	-0.20257741364185
128	220697	30.4	0.30171461263671
128	228795	30.8	-0.31188617122825
128	239339	31.2	0.019212526734917
128	249530	31.6	-0.023019212298094
129	138083	26	2.2363259039447
129	144262	26.4	1.7550925359202
129	151165	26.8	1.2542652936777
129	157262	27.2	1.3781361203204
129	165408	27.6	2.7134784084742
129	173820	28	0.973
129	180489	28.4	2.6932598636248
129	188863	28.8	1.8531090869407
129	196999	29.2	1.1813342288366
129	205431	29.6	1.957896704303
129	212919	30	1.2242205790549
129	220697	30.4	2.5710360477282
129	228795	30.8	0.973
129	239339	31.2	1.8086708584736
129	249530	31.6	1.6967083880648
130	144262	26.4	32.128
130	151165	26.8	32.128
130	157262	27.2	40.871383702692
130	165408	27.6	49.646370717766
130	173820	28	58.291830825804
130	180489	28.4	67.009778482804
130	188863	28.8	75.735999681088
130	196999	29.2	84.473523079671
130	205431	29.6	93.16272038432
130	212919	30	101.95503292155
130	220697	30.4	110.60985147338
130	228795	30.8	119.25528833966
130	239339	31.2	128.0000150903
130	249530	31.6	136.79569959654
131	144262	26.4	36.55
131	151165	26.8	36.55
131	157262	27.2	36.55
131	165408	27.6	36.55
131	173820	28	36.55
131	180489	28.4	36.55
131	188863	28.8	36.55
131	196999	29.2	36.55
131	205431	29.6	36.55
131	212919	30	36.55
131	220697	30.4	36.55
131	228795	30.8	36.55
131	239339	31.2	36.55
131	249530	31.6	36.55
132	151165	26.8	11.039625887237
132	157262	27.2	11.079529059436
132	165408	27.6	10.915984984897
132	173820	28	11.007509667929
132	180489	28.4	11.017956058439
132	188863	28.8	11.032226513363
132	196999	29.2	10.971208717991
132	205431	29.6	11.101404718719
132	212919	30	10.927801201809
132	220697	30.4	10.915955639249
132	228795	30.8	11.041321654841
132	239339	31.2	11.105662255352
132	249530	31.6	10.978647609372
133	157262	27.2	32.128
133	165408	27.6	32.128
133	173820	28	40.831427739629
133	180489	28.4	49.550418504346
133	188863	28.8	58.241745010347
133	196999	29.2	67.026689074564
133	205431	29.6	75.671831205772
133	212919	30	84.385554877901
133	220697	30.4	93.134543191446
133	228795	30.8	101.85167343446
133	239339	31.2	110.64078134821
133	249530	31.6	119.28161571495
134	157262	27.2	29.95
134	165408	27.6	29.95
134	173820	28	29.95
134	180489	28.4	29.95
134	188863	28.8	29.95
134	196999	29.2	29.95
134	205431	29.6	29.95
134	212919	30	29.95
134	220697	30.4	29.95
134	228795	30.8	29.95
134	239339	31.2	29.95
134	249530	31.6	29.95
135	157262	27.2	0.099757930496711
135	165408	27.6	-0.40886018634774
135	173820	28	0.22881170758046
135	180489	28.4	0.026115976274013
135	188863	28.8	0.035676137311387
135	196999	29.2	-0.15254448843188
135	205431	29.6	0.32549000182189
135	212919	30	-0.43400879227556
135	220697	30.4	-0.029613906401211
135	228795	30.8	0.31341503898147
135	239339	31.2	0.16085150127765
135	249530	31.6	-0.31753661495168
136	157262	27.2	2.0364892737915
136	165408	27.6	0.973
136	173820	28	2.3712045004032
136	180489	28.4	1.8344120707
136	188863	28.8	1.861089256191
136	196999	29.2	1.3579074706838
136	205431	29.6	2.6427484496189
136	212919	30	0.973
136	220697	30.4	1.6788385177104
136	228795	30.8	2.6009649366803
136	239339	31.2	2.202784158873
136	249530	31.6	0.973
137	165408	27.6	10.989176438926
137	173820	28	11.008826723127
137	180489	28.4	10.973897103537
137	188863	28.8	11.092101091184
137	196999	29.2	10.915583498999
137	205431	29.6	11.002176353699
137	212919	30	11.046702416092
137	220697	30.4	11.006477579558
137	228795	30.8	11.097358476967
137	239339	31.2	10.91014440245
137	249530	31.6	11.023344252901
138	173820	28	0.049125710502267
138	180489	28.4	-0.087324048974549
138	188863	28.8	0.29550996911712
138	196999	29.2	-0.44129398046061
138	205431	29.6	0.2164821367478
138	212919	30	0.1113151559839
138	220697	30.4	-0.10056209133472
138	228795	30.8	0.22720224352088
138	239339	31.2	-0.46803518629167
138	249530	31.6	0.282999626128
139	173820	28	1.8946550799257
139	180489	28.4	1.5305171228172
139	188863	28.8	2.5611098270437
139	196999	29.2	0.973
139	205431	29.6	2.3377819615201
139	212919	30	2.0637713314276
139	220697	30.4	1.4973790205114
139	228795	30.8	2.3792307000578
139	239339	31.2	0.973
139	249530	31.6	2.5173310486374
140	180489	28.4	32.128
140	188863	28.8	32.128
140	196999	29.2	40.817682433587
140	205431	29.6	49.563902397687
140	212919	30	58.302932395432
140	220697	30.4	67.010039851138
140	228795	30.8	75.758382304178
140	239339	31.2	84.485189553289
140	249530	31.6	93.132731370753
141	180489	28.4	33.25
141	188863	28.8	33.25
141	196999	29.2	33.25
141	205431	29.6	33.25
141	212919	30	33.25
141	220697	30.4	33.25
141	228795	30.8	33.25
141	239339	31.2	33.25
141	249530	31.6	33.25
142	188863	28.8	10.971821254529
142	196999	29.2	11.043207025379
142	205431	29.6	11.034128785031
142	212919	30	10.993822545083
142	220697	30.4	11.045886935657
142	228795	30.8	11.018696021605
142	239339	31.2	10.918613405889
142	249530	31.6	10.990757776368
143	196999	29.2	32.128
143	205431	29.6	32.128
143	212919	30	40.787711072922
143	220697	30.4	49.497686226055
143	228795	30.8	58.267603190643
143	239339	31.2	66.991063984252
143	249530	31.6	75.719198159935
144	196999	29.2	26.65
144	205431	29.6	26.65
144	212919	30	26.65
144	220697	30.4	26.65
144	228795	30.8	26.65
144	239339	31.2	26.65
144	249530	31.6	26.65
145	196999	29.2	0.17846442712471
145	205431	29.6	-0.022695600870066
145	212919	30	-0.10076559986919
145	220697	30.4	0.13016097643413
145	228795	30.8	-0.067977285129017
145	239339	31.2	-0.25020653929096
145	249530	31.6	0.18036092619877
146	196999	29.2	2.2421027062672
146	205431	29.6	1.7060379650454
146	212919	30	1.4961116644856
146	220697	30.4	2.1138512204536
146	228795	30.8	1.5846121242774
146	239339	31.2	0.973
146	249530	31.6	2.2405758640965
147	205431	29.6	10.933978627427
147	212919	30	10.997443375168
147	220697	30.4	11.07312748054
147	228795	30.8	11.014470699001
147	239339	31.2	11.020371433944
147	249530	31.6	11.044976417711
148	212919	30	0.15866186935455
148	220697	30.4	0.18921026343014
148	228795	30.8	-0.1466419538483
148	239339	31.2	0.014751837356015
148	249530	31.6	0.061512459418736
149	212919	30	2.1839021016483
149	220697	30.4	2.2745235177312
149	228795	30.8	1.3755210236671
149	239339	31.2	1.8044429445164
149	249530	31.6	1.9310166279784
150	220697	30.4	32.128
150	228795	30.8	32.128
150	239339	31.2	40.823794261587
150	249530	31.6	49.584597031472
151	220697	30.4	36.55
151	228795	30.8	36.55
151	239339	31.2	36.55
151	249530	31.6	36.55
152	228795	30.8	10.979538209075
152	239339	31.2	11.061619658945
152	249530	31.6	10.930248083491
153	239339	31.2	32.128
153	249530	31.6	32.128
154	239339	31.2	33.25
154	249530	31.6	33.25
155	239339	31.2	0.20520362467505
155	249530	31.6	-0.32842893863563
156	239339	31.2	2.3156888954063
156	249530	31.6	0.973
157	249530	31.6	10.913314752877

