version 2
run General-6-20190316-16:18:10-4960
attr configname General
attr datetime 20190316-16:18:10
attr experiment General
attr inifile omnetpp.ini
attr iterationvars "$vehicles=0.1, $msgSizeA=1500B, $serviceMsgInterval=0.04s, $msgSizeB=10000B"
attr iterationvarsf vehicles=0.1,msgSizeA=1500B,serviceMsgInterval=0.04s,msgSizeB=10000B-
attr measurement "$vehicles=0.1, $msgSizeA=1500B, $serviceMsgInterval=0.04s, $msgSizeB=10000B"
attr network com.liborio.slicing.SlicingScenario
attr processid 4960
attr repetition 6
attr replication #6
attr resultdir results
attr runnumber 6
attr seedset 6
itervar msgSizeA 1500B
itervar msgSizeB 10000B
itervar serviceMsgInterval 0.04s
itervar vehicles 0.1
param **.debug false
param **.coreDebug false
param *.playgroundSizeX 1200m
param *.playgroundSizeY 1200m
param *.playgroundSizeZ 50m
param *.annotations.draw true
param *.manager.updateInterval 1s
param *.manager.host "\"localhost\""
param *.manager.port 9999
param *.manager.autoShutdown true
param *.manager.launchConfig "xmldoc(\"highway-\"+string(0.1)+\".launchd.xml\")"
param *.connectionManager.sendDirect true
param *.connectionManager.maxInterfDist 2600m
param *.connectionManager.drawMaxIntfDist false
param *.rsu[*].applType "\"RSUApp\""
param *.rsu[*].appl.headerLength "80 bit"
param *.rsu[*].appl.sendBeacons false
param *.rsu[*].appl.dataOnSch true
param *.rsu[*].appl.beaconInterval 1s
param *.rsu[*].appl.beaconUserPriority 7
param *.rsu[*].appl.dataUserPriority 5
param *.rsu[*].appl.entMsgADataLengthBytes 1500B
param *.rsu[*].appl.entMsgAUserPriority 4
param *.rsu[*].appl.entMsgAInterval 0.04s
param *.rsu[*].appl.entMsgBDataLengthBytes 10000B
param *.rsu[*].appl.entMsgBUserPriority 4
param *.rsu[*].appl.entMsgBInterval 0.04s
param *.rsu[*].nic.mac1609_4.useServiceChannel true
param *.rsu[*].nic.mac1609_4.txPower 20mW
param *.rsu[*].nic.mac1609_4.bitrate 6Mbps
param *.rsu[*].nic.phy80211p.sensitivity -90.00dBm
param *.rsu[0].mobility.x 515.0
param *.rsu[0].mobility.y 25.0
param *.rsu[0].mobility.z 3
param *.node[*].applType "\"VehApp\""
param *.node[*].appl.headerLength "80 bit"
param *.node[*].appl.sendBeacons false
param *.node[*].appl.dataOnSch true
param *.node[*].appl.beaconInterval 1s
param *.node[*].appl.wsaInterval 1s
param *.node[*].appl.entMsgADataLengthBits 1500B
param *.node[*].appl.entMsgAUserPriority 4
param *.node[*].appl.entMsgAInterval 0.04s
param *.node[*].appl.entMsgBDataLengthBits 10000B
param *.node[*].appl.entMsgBUserPriority 4
param *.node[*].appl.entMsgBInterval 0.04s
param *.node[*].nic.mac1609_4.useServiceChannel true
param *.node[*].nic.mac1609_4.txPower 20mW
param *.node[*].nic.mac1609_4.bitrate 6Mbps
param *.node[*].nic.phy80211p.sensitivity -90.00dBm
param *.node[*].veinsmobilityType.debug true
param *.node[*].veinsmobility.x 0
param *.node[*].veinsmobility.y 0
param *.node[*].veinsmobility.z 1.895
param *.**.nic.phy80211p.useThermalNoise true
param *.**.nic.phy80211p.thermalNoise -110dBm
param *.**.nic.phy80211p.decider "xmldoc(\"config.xml\")"
param *.**.nic.phy80211p.analogueModels "xmldoc(\"config.xml\")"
param *.**.nic.phy80211p.usePropagationDelay true
param *.**.nic.phy80211p.antenna "xmldoc(\"antenna.xml\", \"/root/Antenna[@id='monopole']\")"
param *.**.nic.phy80211p.collectCollisionStatistics true
param *.**.nic.phy80211p.allowTxDuringRx false

scalar SlicingScenario.node[2].appl txPackets_CCH_25 0
scalar SlicingScenario.node[2].appl rxPackets_CCH_25 0
scalar SlicingScenario.node[2].appl rxNeighborPackets_CCH_25 0
scalar SlicingScenario.node[2].appl meanDelay_CCH_25 0
scalar SlicingScenario.node[2].appl meanJitter_CCH_25 0
scalar SlicingScenario.node[2].appl meanRxPacketSize_CCH_25 0
scalar SlicingScenario.node[2].appl meanTxPacketSize_CCH_25 0
scalar SlicingScenario.node[2].appl meanRxThroughput_CCH_25 0
scalar SlicingScenario.node[2].appl meanTxThroughput_CCH_25 0
scalar SlicingScenario.node[2].appl rxTimeOfService_CCH_25 0
scalar SlicingScenario.node[2].appl txTimeOfService_CCH_25 0
scalar SlicingScenario.node[2].appl txPackets_SCH_41_25 0
scalar SlicingScenario.node[2].appl rxPackets_SCH_41_25 2212
scalar SlicingScenario.node[2].appl rxNeighborPackets_SCH_41_25 12444
scalar SlicingScenario.node[2].appl meanDelay_SCH_41_25 27.281023197524
scalar SlicingScenario.node[2].appl meanJitter_SCH_41_25 0.032281605293
scalar SlicingScenario.node[2].appl meanRxPacketSize_SCH_41_25 1438
scalar SlicingScenario.node[2].appl meanTxPacketSize_SCH_41_25 0
scalar SlicingScenario.node[2].appl meanRxThroughput_SCH_41_25 300148.58090792
scalar SlicingScenario.node[2].appl meanTxThroughput_SCH_41_25 0
scalar SlicingScenario.node[2].appl rxTimeOfService_SCH_41_25 84.814527268445
scalar SlicingScenario.node[2].appl txTimeOfService_SCH_41_25 0
scalar SlicingScenario.node[2].nic.phy80211p busyTime 0.35736886956527
scalar SlicingScenario.node[2].nic.phy80211p ncollisions 0
scalar SlicingScenario.node[2].nic.phy80211p UnderSensitivityPackets 1709
scalar SlicingScenario.node[2].nic.mac1609_4 ReceivedUnicastPackets_CCH 0
scalar SlicingScenario.node[2].nic.mac1609_4 ReceivedBroadcasts_CCH 263
scalar SlicingScenario.node[2].nic.mac1609_4 SentPackets_CCH 0
scalar SlicingScenario.node[2].nic.mac1609_4 SentAcknowledgements_CCH 0
scalar SlicingScenario.node[2].nic.mac1609_4 SNIRLostPackets_CCH 0
scalar SlicingScenario.node[2].nic.mac1609_4 RXTXLostPackets_CCH 0
scalar SlicingScenario.node[2].nic.mac1609_4 TotalLostPackets_CCH 0
scalar SlicingScenario.node[2].nic.mac1609_4 DroppedPacketsInMac_CCH 0
scalar SlicingScenario.node[2].nic.mac1609_4 TooLittleTime_CCH 0
scalar SlicingScenario.node[2].nic.mac1609_4 TimesIntoBackoff_CCH 0
scalar SlicingScenario.node[2].nic.mac1609_4 SlotsBackoff_CCH 0
scalar SlicingScenario.node[2].nic.mac1609_4 NumInternalContention_CCH 0
scalar SlicingScenario.node[2].nic.mac1609_4 RemainingPacketsInEDCA_CCH 0
scalar SlicingScenario.node[2].nic.mac1609_4 totalBusyTime_CCH 0.979906332322
scalar SlicingScenario.node[2].nic.mac1609_4 ReceivedUnicastPackets_SCH 0
scalar SlicingScenario.node[2].nic.mac1609_4 ReceivedBroadcasts_SCH 16347
scalar SlicingScenario.node[2].nic.mac1609_4 SentPackets_SCH 0
scalar SlicingScenario.node[2].nic.mac1609_4 SentAcknowledgements_SCH 0
scalar SlicingScenario.node[2].nic.mac1609_4 SNIRLostPackets_SCH 0
scalar SlicingScenario.node[2].nic.mac1609_4 RXTXLostPackets_SCH 0
scalar SlicingScenario.node[2].nic.mac1609_4 TotalLostPackets_SCH 0
scalar SlicingScenario.node[2].nic.mac1609_4 DroppedPacketsInMac_SCH 0
scalar SlicingScenario.node[2].nic.mac1609_4 TooLittleTime_SCH 0
scalar SlicingScenario.node[2].nic.mac1609_4 TimesIntoBackoff_SCH 0
scalar SlicingScenario.node[2].nic.mac1609_4 SlotsBackoff_SCH 0
scalar SlicingScenario.node[2].nic.mac1609_4 NumInternalContention_SCH 0
scalar SlicingScenario.node[2].nic.mac1609_4 RemainingPacketsInEDCA_SCH 0
scalar SlicingScenario.node[2].nic.mac1609_4 totalBusyTime_SCH 32.372016
scalar SlicingScenario.node[2].veinsmobility startTime 1
scalar SlicingScenario.node[2].veinsmobility totalTime 91
scalar SlicingScenario.node[2].veinsmobility stopTime 93
scalar SlicingScenario.node[2].veinsmobility minSpeed 10.610384910731
scalar SlicingScenario.node[2].veinsmobility maxSpeed 11.101167687462
scalar SlicingScenario.node[2].veinsmobility totalDistance 978.70026531559
scalar SlicingScenario.node[2].veinsmobility totalCO2Emission 158.44281504534
scalar SlicingScenario.node[0].appl txPackets_CCH_13 0
scalar SlicingScenario.node[0].appl rxPackets_CCH_13 0
scalar SlicingScenario.node[0].appl rxNeighborPackets_CCH_13 0
scalar SlicingScenario.node[0].appl meanDelay_CCH_13 0
scalar SlicingScenario.node[0].appl meanJitter_CCH_13 0
scalar SlicingScenario.node[0].appl meanRxPacketSize_CCH_13 0
scalar SlicingScenario.node[0].appl meanTxPacketSize_CCH_13 0
scalar SlicingScenario.node[0].appl meanRxThroughput_CCH_13 0
scalar SlicingScenario.node[0].appl meanTxThroughput_CCH_13 0
scalar SlicingScenario.node[0].appl rxTimeOfService_CCH_13 0
scalar SlicingScenario.node[0].appl txTimeOfService_CCH_13 0
scalar SlicingScenario.node[0].appl txPackets_SCH_41_13 0
scalar SlicingScenario.node[0].appl rxPackets_SCH_41_13 2315
scalar SlicingScenario.node[0].appl rxNeighborPackets_SCH_41_13 12527
scalar SlicingScenario.node[0].appl meanDelay_SCH_41_13 26.306451904641
scalar SlicingScenario.node[0].appl meanJitter_SCH_41_13 0.030945968914
scalar SlicingScenario.node[0].appl meanRxPacketSize_SCH_41_13 1438
scalar SlicingScenario.node[0].appl meanTxPacketSize_SCH_41_13 0
scalar SlicingScenario.node[0].appl meanRxThroughput_SCH_41_13 311670.93597492
scalar SlicingScenario.node[0].appl meanTxThroughput_SCH_41_13 0
scalar SlicingScenario.node[0].appl rxTimeOfService_SCH_41_13 85.491449232033
scalar SlicingScenario.node[0].appl txTimeOfService_SCH_41_13 0
scalar SlicingScenario.node[0].nic.phy80211p busyTime 0.36195756521744
scalar SlicingScenario.node[0].nic.phy80211p ncollisions 0
scalar SlicingScenario.node[0].nic.phy80211p UnderSensitivityPackets 1496
scalar SlicingScenario.node[0].nic.mac1609_4 ReceivedUnicastPackets_CCH 0
scalar SlicingScenario.node[0].nic.mac1609_4 ReceivedBroadcasts_CCH 225
scalar SlicingScenario.node[0].nic.mac1609_4 SentPackets_CCH 0
scalar SlicingScenario.node[0].nic.mac1609_4 SentAcknowledgements_CCH 0
scalar SlicingScenario.node[0].nic.mac1609_4 SNIRLostPackets_CCH 0
scalar SlicingScenario.node[0].nic.mac1609_4 RXTXLostPackets_CCH 0
scalar SlicingScenario.node[0].nic.mac1609_4 TotalLostPackets_CCH 0
scalar SlicingScenario.node[0].nic.mac1609_4 DroppedPacketsInMac_CCH 0
scalar SlicingScenario.node[0].nic.mac1609_4 TooLittleTime_CCH 0
scalar SlicingScenario.node[0].nic.mac1609_4 TimesIntoBackoff_CCH 0
scalar SlicingScenario.node[0].nic.mac1609_4 SlotsBackoff_CCH 0
scalar SlicingScenario.node[0].nic.mac1609_4 NumInternalContention_CCH 0
scalar SlicingScenario.node[0].nic.mac1609_4 RemainingPacketsInEDCA_CCH 0
scalar SlicingScenario.node[0].nic.mac1609_4 totalBusyTime_CCH 0.837701253297
scalar SlicingScenario.node[0].nic.mac1609_4 ReceivedUnicastPackets_SCH 0
scalar SlicingScenario.node[0].nic.mac1609_4 ReceivedBroadcasts_SCH 16598
scalar SlicingScenario.node[0].nic.mac1609_4 SentPackets_SCH 0
scalar SlicingScenario.node[0].nic.mac1609_4 SentAcknowledgements_SCH 0
scalar SlicingScenario.node[0].nic.mac1609_4 SNIRLostPackets_SCH 0
scalar SlicingScenario.node[0].nic.mac1609_4 RXTXLostPackets_SCH 0
scalar SlicingScenario.node[0].nic.mac1609_4 TotalLostPackets_SCH 0
scalar SlicingScenario.node[0].nic.mac1609_4 DroppedPacketsInMac_SCH 0
scalar SlicingScenario.node[0].nic.mac1609_4 TooLittleTime_SCH 0
scalar SlicingScenario.node[0].nic.mac1609_4 TimesIntoBackoff_SCH 0
scalar SlicingScenario.node[0].nic.mac1609_4 SlotsBackoff_SCH 0
scalar SlicingScenario.node[0].nic.mac1609_4 NumInternalContention_SCH 0
scalar SlicingScenario.node[0].nic.mac1609_4 RemainingPacketsInEDCA_SCH 0
scalar SlicingScenario.node[0].nic.mac1609_4 totalBusyTime_SCH 32.86992
scalar SlicingScenario.node[0].veinsmobility startTime 1
scalar SlicingScenario.node[0].veinsmobility totalTime 91
scalar SlicingScenario.node[0].veinsmobility stopTime 93
scalar SlicingScenario.node[0].veinsmobility minSpeed 10.621437957291
scalar SlicingScenario.node[0].veinsmobility maxSpeed 11.108837953666
scalar SlicingScenario.node[0].veinsmobility totalDistance 978.15882498721
scalar SlicingScenario.node[0].veinsmobility totalCO2Emission 158.42724944779
scalar SlicingScenario.node[1].appl txPackets_CCH_19 0
scalar SlicingScenario.node[1].appl rxPackets_CCH_19 0
scalar SlicingScenario.node[1].appl rxNeighborPackets_CCH_19 0
scalar SlicingScenario.node[1].appl meanDelay_CCH_19 0
scalar SlicingScenario.node[1].appl meanJitter_CCH_19 0
scalar SlicingScenario.node[1].appl meanRxPacketSize_CCH_19 0
scalar SlicingScenario.node[1].appl meanTxPacketSize_CCH_19 0
scalar SlicingScenario.node[1].appl meanRxThroughput_CCH_19 0
scalar SlicingScenario.node[1].appl meanTxThroughput_CCH_19 0
scalar SlicingScenario.node[1].appl rxTimeOfService_CCH_19 0
scalar SlicingScenario.node[1].appl txTimeOfService_CCH_19 0
scalar SlicingScenario.node[1].appl txPackets_SCH_41_19 0
scalar SlicingScenario.node[1].appl rxPackets_SCH_41_19 2317
scalar SlicingScenario.node[1].appl rxNeighborPackets_SCH_41_19 12525
scalar SlicingScenario.node[1].appl meanDelay_SCH_41_19 26.280816284298
scalar SlicingScenario.node[1].appl meanJitter_SCH_41_19 0.03083232898
scalar SlicingScenario.node[1].appl meanRxPacketSize_SCH_41_19 1438
scalar SlicingScenario.node[1].appl meanTxPacketSize_SCH_41_19 0
scalar SlicingScenario.node[1].appl meanRxThroughput_SCH_41_19 312692.25934728
scalar SlicingScenario.node[1].appl meanTxThroughput_SCH_41_19 0
scalar SlicingScenario.node[1].appl rxTimeOfService_SCH_41_19 85.276687231278
scalar SlicingScenario.node[1].appl txTimeOfService_SCH_41_19 0
scalar SlicingScenario.node[1].nic.phy80211p busyTime 0.36195756521744
scalar SlicingScenario.node[1].nic.phy80211p ncollisions 0
scalar SlicingScenario.node[1].nic.phy80211p UnderSensitivityPackets 1496
scalar SlicingScenario.node[1].nic.mac1609_4 ReceivedUnicastPackets_CCH 0
scalar SlicingScenario.node[1].nic.mac1609_4 ReceivedBroadcasts_CCH 236
scalar SlicingScenario.node[1].nic.mac1609_4 SentPackets_CCH 0
scalar SlicingScenario.node[1].nic.mac1609_4 SentAcknowledgements_CCH 0
scalar SlicingScenario.node[1].nic.mac1609_4 SNIRLostPackets_CCH 0
scalar SlicingScenario.node[1].nic.mac1609_4 RXTXLostPackets_CCH 0
scalar SlicingScenario.node[1].nic.mac1609_4 TotalLostPackets_CCH 0
scalar SlicingScenario.node[1].nic.mac1609_4 DroppedPacketsInMac_CCH 0
scalar SlicingScenario.node[1].nic.mac1609_4 TooLittleTime_CCH 0
scalar SlicingScenario.node[1].nic.mac1609_4 TimesIntoBackoff_CCH 0
scalar SlicingScenario.node[1].nic.mac1609_4 SlotsBackoff_CCH 0
scalar SlicingScenario.node[1].nic.mac1609_4 NumInternalContention_CCH 0
scalar SlicingScenario.node[1].nic.mac1609_4 RemainingPacketsInEDCA_CCH 0
scalar SlicingScenario.node[1].nic.mac1609_4 totalBusyTime_CCH 0.878059894033
scalar SlicingScenario.node[1].nic.mac1609_4 ReceivedUnicastPackets_SCH 0
scalar SlicingScenario.node[1].nic.mac1609_4 ReceivedBroadcasts_SCH 16587
scalar SlicingScenario.node[1].nic.mac1609_4 SentPackets_SCH 0
scalar SlicingScenario.node[1].nic.mac1609_4 SentAcknowledgements_SCH 0
scalar SlicingScenario.node[1].nic.mac1609_4 SNIRLostPackets_SCH 0
scalar SlicingScenario.node[1].nic.mac1609_4 RXTXLostPackets_SCH 0
scalar SlicingScenario.node[1].nic.mac1609_4 TotalLostPackets_SCH 0
scalar SlicingScenario.node[1].nic.mac1609_4 DroppedPacketsInMac_SCH 0
scalar SlicingScenario.node[1].nic.mac1609_4 TooLittleTime_SCH 0
scalar SlicingScenario.node[1].nic.mac1609_4 TimesIntoBackoff_SCH 0
scalar SlicingScenario.node[1].nic.mac1609_4 SlotsBackoff_SCH 0
scalar SlicingScenario.node[1].nic.mac1609_4 NumInternalContention_SCH 0
scalar SlicingScenario.node[1].nic.mac1609_4 RemainingPacketsInEDCA_SCH 0
scalar SlicingScenario.node[1].nic.mac1609_4 totalBusyTime_SCH 32.84856
scalar SlicingScenario.node[1].veinsmobility startTime 1
scalar SlicingScenario.node[1].veinsmobility totalTime 91
scalar SlicingScenario.node[1].veinsmobility stopTime 93
scalar SlicingScenario.node[1].veinsmobility minSpeed 10.620643097106
scalar SlicingScenario.node[1].veinsmobility maxSpeed 11.109812543392
scalar SlicingScenario.node[1].veinsmobility totalDistance 977.59938579657
scalar SlicingScenario.node[1].veinsmobility totalCO2Emission 158.13155474051
scalar SlicingScenario.node[3].appl txPackets_CCH_31 0
scalar SlicingScenario.node[3].appl rxPackets_CCH_31 0
scalar SlicingScenario.node[3].appl rxNeighborPackets_CCH_31 0
scalar SlicingScenario.node[3].appl meanDelay_CCH_31 0
scalar SlicingScenario.node[3].appl meanJitter_CCH_31 0
scalar SlicingScenario.node[3].appl meanRxPacketSize_CCH_31 0
scalar SlicingScenario.node[3].appl meanTxPacketSize_CCH_31 0
scalar SlicingScenario.node[3].appl meanRxThroughput_CCH_31 0
scalar SlicingScenario.node[3].appl meanTxThroughput_CCH_31 0
scalar SlicingScenario.node[3].appl rxTimeOfService_CCH_31 0
scalar SlicingScenario.node[3].appl txTimeOfService_CCH_31 0
scalar SlicingScenario.node[3].appl txPackets_SCH_40_31 0
scalar SlicingScenario.node[3].appl rxPackets_SCH_40_31 327
scalar SlicingScenario.node[3].appl rxNeighborPackets_SCH_40_31 1683
scalar SlicingScenario.node[3].appl meanDelay_SCH_40_31 27.093404218644
scalar SlicingScenario.node[3].appl meanJitter_SCH_40_31 0.217956361435
scalar SlicingScenario.node[3].appl meanRxPacketSize_SCH_40_31 1510
scalar SlicingScenario.node[3].appl meanTxPacketSize_SCH_40_31 0
scalar SlicingScenario.node[3].appl meanRxThroughput_SCH_40_31 46581.023423723
scalar SlicingScenario.node[3].appl meanTxThroughput_SCH_40_31 0
scalar SlicingScenario.node[3].appl rxTimeOfService_SCH_40_31 84.801915236329
scalar SlicingScenario.node[3].appl txTimeOfService_SCH_40_31 0
scalar SlicingScenario.node[3].nic.phy80211p busyTime 0.366583826087
scalar SlicingScenario.node[3].nic.phy80211p ncollisions 0
scalar SlicingScenario.node[3].nic.phy80211p UnderSensitivityPackets 1281
scalar SlicingScenario.node[3].nic.mac1609_4 ReceivedUnicastPackets_CCH 0
scalar SlicingScenario.node[3].nic.mac1609_4 ReceivedBroadcasts_CCH 214
scalar SlicingScenario.node[3].nic.mac1609_4 SentPackets_CCH 0
scalar SlicingScenario.node[3].nic.mac1609_4 SentAcknowledgements_CCH 0
scalar SlicingScenario.node[3].nic.mac1609_4 SNIRLostPackets_CCH 0
scalar SlicingScenario.node[3].nic.mac1609_4 RXTXLostPackets_CCH 0
scalar SlicingScenario.node[3].nic.mac1609_4 TotalLostPackets_CCH 0
scalar SlicingScenario.node[3].nic.mac1609_4 DroppedPacketsInMac_CCH 0
scalar SlicingScenario.node[3].nic.mac1609_4 TooLittleTime_CCH 0
scalar SlicingScenario.node[3].nic.mac1609_4 TimesIntoBackoff_CCH 0
scalar SlicingScenario.node[3].nic.mac1609_4 SlotsBackoff_CCH 0
scalar SlicingScenario.node[3].nic.mac1609_4 NumInternalContention_CCH 0
scalar SlicingScenario.node[3].nic.mac1609_4 RemainingPacketsInEDCA_CCH 0
scalar SlicingScenario.node[3].nic.mac1609_4 totalBusyTime_CCH 0.797668409103
scalar SlicingScenario.node[3].nic.mac1609_4 ReceivedUnicastPackets_SCH 0
scalar SlicingScenario.node[3].nic.mac1609_4 ReceivedBroadcasts_SCH 16824
scalar SlicingScenario.node[3].nic.mac1609_4 SentPackets_SCH 0
scalar SlicingScenario.node[3].nic.mac1609_4 SentAcknowledgements_SCH 0
scalar SlicingScenario.node[3].nic.mac1609_4 SNIRLostPackets_SCH 0
scalar SlicingScenario.node[3].nic.mac1609_4 RXTXLostPackets_SCH 0
scalar SlicingScenario.node[3].nic.mac1609_4 TotalLostPackets_SCH 0
scalar SlicingScenario.node[3].nic.mac1609_4 DroppedPacketsInMac_SCH 0
scalar SlicingScenario.node[3].nic.mac1609_4 TooLittleTime_SCH 0
scalar SlicingScenario.node[3].nic.mac1609_4 TimesIntoBackoff_SCH 0
scalar SlicingScenario.node[3].nic.mac1609_4 SlotsBackoff_SCH 0
scalar SlicingScenario.node[3].nic.mac1609_4 NumInternalContention_SCH 0
scalar SlicingScenario.node[3].nic.mac1609_4 RemainingPacketsInEDCA_SCH 0
scalar SlicingScenario.node[3].nic.mac1609_4 totalBusyTime_SCH 33.316896
scalar SlicingScenario.node[3].veinsmobility startTime 1
scalar SlicingScenario.node[3].veinsmobility totalTime 91
scalar SlicingScenario.node[3].veinsmobility stopTime 93
scalar SlicingScenario.node[3].veinsmobility minSpeed 10.611083143405
scalar SlicingScenario.node[3].veinsmobility maxSpeed 11.096168889329
scalar SlicingScenario.node[3].veinsmobility totalDistance 979.49762382722
scalar SlicingScenario.node[3].veinsmobility totalCO2Emission 159.60181822938
scalar SlicingScenario.node[6].appl txPackets_CCH_49 0
scalar SlicingScenario.node[6].appl rxPackets_CCH_49 0
scalar SlicingScenario.node[6].appl rxNeighborPackets_CCH_49 0
scalar SlicingScenario.node[6].appl meanDelay_CCH_49 0
scalar SlicingScenario.node[6].appl meanJitter_CCH_49 0
scalar SlicingScenario.node[6].appl meanRxPacketSize_CCH_49 0
scalar SlicingScenario.node[6].appl meanTxPacketSize_CCH_49 0
scalar SlicingScenario.node[6].appl meanRxThroughput_CCH_49 0
scalar SlicingScenario.node[6].appl meanTxThroughput_CCH_49 0
scalar SlicingScenario.node[6].appl rxTimeOfService_CCH_49 0
scalar SlicingScenario.node[6].appl txTimeOfService_CCH_49 0
scalar SlicingScenario.node[6].appl txPackets_SCH_41_49 0
scalar SlicingScenario.node[6].appl rxPackets_SCH_41_49 1981
scalar SlicingScenario.node[6].appl rxNeighborPackets_SCH_41_49 13422
scalar SlicingScenario.node[6].appl meanDelay_SCH_41_49 32.153730944789
scalar SlicingScenario.node[6].appl meanJitter_SCH_41_49 0.036785757367
scalar SlicingScenario.node[6].appl meanRxPacketSize_SCH_41_49 1438
scalar SlicingScenario.node[6].appl meanTxPacketSize_SCH_41_49 0
scalar SlicingScenario.node[6].appl meanRxThroughput_SCH_41_49 278407.03948122
scalar SlicingScenario.node[6].appl meanTxThroughput_SCH_41_49 0
scalar SlicingScenario.node[6].appl rxTimeOfService_SCH_41_49 81.889021349757
scalar SlicingScenario.node[6].appl txTimeOfService_SCH_41_49 0
scalar SlicingScenario.node[6].nic.phy80211p busyTime 0.37171354838713
scalar SlicingScenario.node[6].nic.phy80211p ncollisions 0
scalar SlicingScenario.node[6].nic.phy80211p UnderSensitivityPackets 1282
scalar SlicingScenario.node[6].nic.mac1609_4 ReceivedUnicastPackets_CCH 0
scalar SlicingScenario.node[6].nic.mac1609_4 ReceivedBroadcasts_CCH 197
scalar SlicingScenario.node[6].nic.mac1609_4 SentPackets_CCH 0
scalar SlicingScenario.node[6].nic.mac1609_4 SentAcknowledgements_CCH 0
scalar SlicingScenario.node[6].nic.mac1609_4 SNIRLostPackets_CCH 0
scalar SlicingScenario.node[6].nic.mac1609_4 RXTXLostPackets_CCH 0
scalar SlicingScenario.node[6].nic.mac1609_4 TotalLostPackets_CCH 0
scalar SlicingScenario.node[6].nic.mac1609_4 DroppedPacketsInMac_CCH 0
scalar SlicingScenario.node[6].nic.mac1609_4 TooLittleTime_CCH 0
scalar SlicingScenario.node[6].nic.mac1609_4 TimesIntoBackoff_CCH 0
scalar SlicingScenario.node[6].nic.mac1609_4 SlotsBackoff_CCH 0
scalar SlicingScenario.node[6].nic.mac1609_4 NumInternalContention_CCH 0
scalar SlicingScenario.node[6].nic.mac1609_4 RemainingPacketsInEDCA_CCH 0
scalar SlicingScenario.node[6].nic.mac1609_4 totalBusyTime_CCH 0.734018027333
scalar SlicingScenario.node[6].nic.mac1609_4 ReceivedUnicastPackets_SCH 0
scalar SlicingScenario.node[6].nic.mac1609_4 ReceivedBroadcasts_SCH 17267
scalar SlicingScenario.node[6].nic.mac1609_4 SentPackets_SCH 0
scalar SlicingScenario.node[6].nic.mac1609_4 SentAcknowledgements_SCH 0
scalar SlicingScenario.node[6].nic.mac1609_4 SNIRLostPackets_SCH 0
scalar SlicingScenario.node[6].nic.mac1609_4 RXTXLostPackets_SCH 0
scalar SlicingScenario.node[6].nic.mac1609_4 TotalLostPackets_SCH 0
scalar SlicingScenario.node[6].nic.mac1609_4 DroppedPacketsInMac_SCH 0
scalar SlicingScenario.node[6].nic.mac1609_4 TooLittleTime_SCH 0
scalar SlicingScenario.node[6].nic.mac1609_4 TimesIntoBackoff_SCH 0
scalar SlicingScenario.node[6].nic.mac1609_4 SlotsBackoff_SCH 0
scalar SlicingScenario.node[6].nic.mac1609_4 NumInternalContention_SCH 0
scalar SlicingScenario.node[6].nic.mac1609_4 RemainingPacketsInEDCA_SCH 0
scalar SlicingScenario.node[6].nic.mac1609_4 totalBusyTime_SCH 34.193616
scalar SlicingScenario.node[6].veinsmobility startTime 2
scalar SlicingScenario.node[6].veinsmobility totalTime 92
scalar SlicingScenario.node[6].veinsmobility stopTime 95
scalar SlicingScenario.node[6].veinsmobility minSpeed 7.761113250731
scalar SlicingScenario.node[6].veinsmobility maxSpeed 11.102804004578
scalar SlicingScenario.node[6].veinsmobility totalDistance 978.03915324167
scalar SlicingScenario.node[6].veinsmobility totalCO2Emission 167.20985621362
scalar SlicingScenario.node[5].appl txPackets_CCH_43 0
scalar SlicingScenario.node[5].appl rxPackets_CCH_43 0
scalar SlicingScenario.node[5].appl rxNeighborPackets_CCH_43 0
scalar SlicingScenario.node[5].appl meanDelay_CCH_43 0
scalar SlicingScenario.node[5].appl meanJitter_CCH_43 0
scalar SlicingScenario.node[5].appl meanRxPacketSize_CCH_43 0
scalar SlicingScenario.node[5].appl meanTxPacketSize_CCH_43 0
scalar SlicingScenario.node[5].appl meanRxThroughput_CCH_43 0
scalar SlicingScenario.node[5].appl meanTxThroughput_CCH_43 0
scalar SlicingScenario.node[5].appl rxTimeOfService_CCH_43 0
scalar SlicingScenario.node[5].appl txTimeOfService_CCH_43 0
scalar SlicingScenario.node[5].appl txPackets_SCH_40_43 0
scalar SlicingScenario.node[5].appl rxPackets_SCH_40_43 280
scalar SlicingScenario.node[5].appl rxNeighborPackets_SCH_40_43 1781
scalar SlicingScenario.node[5].appl meanDelay_SCH_40_43 32.604345088523
scalar SlicingScenario.node[5].appl meanJitter_SCH_40_43 0.261397747385
scalar SlicingScenario.node[5].appl meanRxPacketSize_SCH_40_43 1510
scalar SlicingScenario.node[5].appl meanTxPacketSize_SCH_40_43 0
scalar SlicingScenario.node[5].appl meanRxThroughput_SCH_40_43 41600.543829552
scalar SlicingScenario.node[5].appl meanTxThroughput_SCH_40_43 0
scalar SlicingScenario.node[5].appl rxTimeOfService_SCH_40_43 81.306629400292
scalar SlicingScenario.node[5].appl txTimeOfService_SCH_40_43 0
scalar SlicingScenario.node[5].nic.phy80211p busyTime 0.37171354838713
scalar SlicingScenario.node[5].nic.phy80211p ncollisions 0
scalar SlicingScenario.node[5].nic.phy80211p UnderSensitivityPackets 1282
scalar SlicingScenario.node[5].nic.mac1609_4 ReceivedUnicastPackets_CCH 0
scalar SlicingScenario.node[5].nic.mac1609_4 ReceivedBroadcasts_CCH 298
scalar SlicingScenario.node[5].nic.mac1609_4 SentPackets_CCH 0
scalar SlicingScenario.node[5].nic.mac1609_4 SentAcknowledgements_CCH 0
scalar SlicingScenario.node[5].nic.mac1609_4 SNIRLostPackets_CCH 0
scalar SlicingScenario.node[5].nic.mac1609_4 RXTXLostPackets_CCH 0
scalar SlicingScenario.node[5].nic.mac1609_4 TotalLostPackets_CCH 0
scalar SlicingScenario.node[5].nic.mac1609_4 DroppedPacketsInMac_CCH 0
scalar SlicingScenario.node[5].nic.mac1609_4 TooLittleTime_CCH 0
scalar SlicingScenario.node[5].nic.mac1609_4 TimesIntoBackoff_CCH 0
scalar SlicingScenario.node[5].nic.mac1609_4 SlotsBackoff_CCH 0
scalar SlicingScenario.node[5].nic.mac1609_4 NumInternalContention_CCH 0
scalar SlicingScenario.node[5].nic.mac1609_4 RemainingPacketsInEDCA_CCH 0
scalar SlicingScenario.node[5].nic.mac1609_4 totalBusyTime_CCH 1.105353686128
scalar SlicingScenario.node[5].nic.mac1609_4 ReceivedUnicastPackets_SCH 0
scalar SlicingScenario.node[5].nic.mac1609_4 ReceivedBroadcasts_SCH 17166
scalar SlicingScenario.node[5].nic.mac1609_4 SentPackets_SCH 0
scalar SlicingScenario.node[5].nic.mac1609_4 SentAcknowledgements_SCH 0
scalar SlicingScenario.node[5].nic.mac1609_4 SNIRLostPackets_SCH 0
scalar SlicingScenario.node[5].nic.mac1609_4 RXTXLostPackets_SCH 0
scalar SlicingScenario.node[5].nic.mac1609_4 TotalLostPackets_SCH 0
scalar SlicingScenario.node[5].nic.mac1609_4 DroppedPacketsInMac_SCH 0
scalar SlicingScenario.node[5].nic.mac1609_4 TooLittleTime_SCH 0
scalar SlicingScenario.node[5].nic.mac1609_4 TimesIntoBackoff_SCH 0
scalar SlicingScenario.node[5].nic.mac1609_4 SlotsBackoff_SCH 0
scalar SlicingScenario.node[5].nic.mac1609_4 NumInternalContention_SCH 0
scalar SlicingScenario.node[5].nic.mac1609_4 RemainingPacketsInEDCA_SCH 0
scalar SlicingScenario.node[5].nic.mac1609_4 totalBusyTime_SCH 33.995232
scalar SlicingScenario.node[5].veinsmobility startTime 2
scalar SlicingScenario.node[5].veinsmobility totalTime 92
scalar SlicingScenario.node[5].veinsmobility stopTime 95
scalar SlicingScenario.node[5].veinsmobility minSpeed 8.3533831599499
scalar SlicingScenario.node[5].veinsmobility maxSpeed 11.105753518189
scalar SlicingScenario.node[5].veinsmobility totalDistance 982.03048120969
scalar SlicingScenario.node[5].veinsmobility totalCO2Emission 166.39183955789
scalar SlicingScenario.node[4].appl txPackets_CCH_37 0
scalar SlicingScenario.node[4].appl rxPackets_CCH_37 0
scalar SlicingScenario.node[4].appl rxNeighborPackets_CCH_37 0
scalar SlicingScenario.node[4].appl meanDelay_CCH_37 0
scalar SlicingScenario.node[4].appl meanJitter_CCH_37 0
scalar SlicingScenario.node[4].appl meanRxPacketSize_CCH_37 0
scalar SlicingScenario.node[4].appl meanTxPacketSize_CCH_37 0
scalar SlicingScenario.node[4].appl meanRxThroughput_CCH_37 0
scalar SlicingScenario.node[4].appl meanTxThroughput_CCH_37 0
scalar SlicingScenario.node[4].appl rxTimeOfService_CCH_37 0
scalar SlicingScenario.node[4].appl txTimeOfService_CCH_37 0
scalar SlicingScenario.node[4].appl txPackets_SCH_40_37 0
scalar SlicingScenario.node[4].appl rxPackets_SCH_40_37 287
scalar SlicingScenario.node[4].appl rxNeighborPackets_SCH_40_37 1774
scalar SlicingScenario.node[4].appl meanDelay_SCH_40_37 31.885188732217
scalar SlicingScenario.node[4].appl meanJitter_SCH_40_37 0.255001149109
scalar SlicingScenario.node[4].appl meanRxPacketSize_SCH_40_37 1510
scalar SlicingScenario.node[4].appl meanTxPacketSize_SCH_40_37 0
scalar SlicingScenario.node[4].appl meanRxThroughput_SCH_40_37 42134.558003683
scalar SlicingScenario.node[4].appl meanTxThroughput_SCH_40_37 0
scalar SlicingScenario.node[4].appl rxTimeOfService_SCH_40_37 82.283051354115
scalar SlicingScenario.node[4].appl txTimeOfService_SCH_40_37 0
scalar SlicingScenario.node[4].nic.phy80211p busyTime 0.37171354838713
scalar SlicingScenario.node[4].nic.phy80211p ncollisions 0
scalar SlicingScenario.node[4].nic.phy80211p UnderSensitivityPackets 1282
scalar SlicingScenario.node[4].nic.mac1609_4 ReceivedUnicastPackets_CCH 0
scalar SlicingScenario.node[4].nic.mac1609_4 ReceivedBroadcasts_CCH 298
scalar SlicingScenario.node[4].nic.mac1609_4 SentPackets_CCH 0
scalar SlicingScenario.node[4].nic.mac1609_4 SentAcknowledgements_CCH 0
scalar SlicingScenario.node[4].nic.mac1609_4 SNIRLostPackets_CCH 0
scalar SlicingScenario.node[4].nic.mac1609_4 RXTXLostPackets_CCH 0
scalar SlicingScenario.node[4].nic.mac1609_4 TotalLostPackets_CCH 0
scalar SlicingScenario.node[4].nic.mac1609_4 DroppedPacketsInMac_CCH 0
scalar SlicingScenario.node[4].nic.mac1609_4 TooLittleTime_CCH 0
scalar SlicingScenario.node[4].nic.mac1609_4 TimesIntoBackoff_CCH 0
scalar SlicingScenario.node[4].nic.mac1609_4 SlotsBackoff_CCH 0
scalar SlicingScenario.node[4].nic.mac1609_4 NumInternalContention_CCH 0
scalar SlicingScenario.node[4].nic.mac1609_4 RemainingPacketsInEDCA_CCH 0
scalar SlicingScenario.node[4].nic.mac1609_4 totalBusyTime_CCH 1.107411850775
scalar SlicingScenario.node[4].nic.mac1609_4 ReceivedUnicastPackets_SCH 0
scalar SlicingScenario.node[4].nic.mac1609_4 ReceivedBroadcasts_SCH 17166
scalar SlicingScenario.node[4].nic.mac1609_4 SentPackets_SCH 0
scalar SlicingScenario.node[4].nic.mac1609_4 SentAcknowledgements_SCH 0
scalar SlicingScenario.node[4].nic.mac1609_4 SNIRLostPackets_SCH 0
scalar SlicingScenario.node[4].nic.mac1609_4 RXTXLostPackets_SCH 0
scalar SlicingScenario.node[4].nic.mac1609_4 TotalLostPackets_SCH 0
scalar SlicingScenario.node[4].nic.mac1609_4 DroppedPacketsInMac_SCH 0
scalar SlicingScenario.node[4].nic.mac1609_4 TooLittleTime_SCH 0
scalar SlicingScenario.node[4].nic.mac1609_4 TimesIntoBackoff_SCH 0
scalar SlicingScenario.node[4].nic.mac1609_4 SlotsBackoff_SCH 0
scalar SlicingScenario.node[4].nic.mac1609_4 NumInternalContention_SCH 0
scalar SlicingScenario.node[4].nic.mac1609_4 RemainingPacketsInEDCA_SCH 0
scalar SlicingScenario.node[4].nic.mac1609_4 totalBusyTime_SCH 33.995232
scalar SlicingScenario.node[4].veinsmobility startTime 2
scalar SlicingScenario.node[4].veinsmobility totalTime 92
scalar SlicingScenario.node[4].veinsmobility stopTime 95
scalar SlicingScenario.node[4].veinsmobility minSpeed 7.9278850310813
scalar SlicingScenario.node[4].veinsmobility maxSpeed 11.108698851094
scalar SlicingScenario.node[4].veinsmobility totalDistance 979.0957012695
scalar SlicingScenario.node[4].veinsmobility totalCO2Emission 166.92773199861
scalar SlicingScenario.node[7].appl txPackets_CCH_55 0
scalar SlicingScenario.node[7].appl rxPackets_CCH_55 0
scalar SlicingScenario.node[7].appl rxNeighborPackets_CCH_55 0
scalar SlicingScenario.node[7].appl meanDelay_CCH_55 0
scalar SlicingScenario.node[7].appl meanJitter_CCH_55 0
scalar SlicingScenario.node[7].appl meanRxPacketSize_CCH_55 0
scalar SlicingScenario.node[7].appl meanTxPacketSize_CCH_55 0
scalar SlicingScenario.node[7].appl meanRxThroughput_CCH_55 0
scalar SlicingScenario.node[7].appl meanTxThroughput_CCH_55 0
scalar SlicingScenario.node[7].appl rxTimeOfService_CCH_55 0
scalar SlicingScenario.node[7].appl txTimeOfService_CCH_55 0
scalar SlicingScenario.node[7].appl txPackets_SCH_40_55 0
scalar SlicingScenario.node[7].appl rxPackets_SCH_40_55 293
scalar SlicingScenario.node[7].appl rxNeighborPackets_SCH_40_55 1768
scalar SlicingScenario.node[7].appl meanDelay_SCH_40_55 31.298109534098
scalar SlicingScenario.node[7].appl meanJitter_SCH_40_55 0.249766339658
scalar SlicingScenario.node[7].appl meanRxPacketSize_SCH_40_55 1510
scalar SlicingScenario.node[7].appl meanTxPacketSize_SCH_40_55 0
scalar SlicingScenario.node[7].appl meanRxThroughput_SCH_40_55 42690.795074503
scalar SlicingScenario.node[7].appl meanTxThroughput_SCH_40_55 0
scalar SlicingScenario.node[7].appl rxTimeOfService_SCH_40_55 82.90873931542
scalar SlicingScenario.node[7].appl txTimeOfService_SCH_40_55 0
scalar SlicingScenario.node[7].nic.phy80211p busyTime 0.37171354838713
scalar SlicingScenario.node[7].nic.phy80211p ncollisions 0
scalar SlicingScenario.node[7].nic.phy80211p UnderSensitivityPackets 1282
scalar SlicingScenario.node[7].nic.mac1609_4 ReceivedUnicastPackets_CCH 0
scalar SlicingScenario.node[7].nic.mac1609_4 ReceivedBroadcasts_CCH 87
scalar SlicingScenario.node[7].nic.mac1609_4 SentPackets_CCH 0
scalar SlicingScenario.node[7].nic.mac1609_4 SentAcknowledgements_CCH 0
scalar SlicingScenario.node[7].nic.mac1609_4 SNIRLostPackets_CCH 0
scalar SlicingScenario.node[7].nic.mac1609_4 RXTXLostPackets_CCH 0
scalar SlicingScenario.node[7].nic.mac1609_4 TotalLostPackets_CCH 0
scalar SlicingScenario.node[7].nic.mac1609_4 DroppedPacketsInMac_CCH 0
scalar SlicingScenario.node[7].nic.mac1609_4 TooLittleTime_CCH 0
scalar SlicingScenario.node[7].nic.mac1609_4 TimesIntoBackoff_CCH 0
scalar SlicingScenario.node[7].nic.mac1609_4 SlotsBackoff_CCH 0
scalar SlicingScenario.node[7].nic.mac1609_4 NumInternalContention_CCH 0
scalar SlicingScenario.node[7].nic.mac1609_4 RemainingPacketsInEDCA_CCH 0
scalar SlicingScenario.node[7].nic.mac1609_4 totalBusyTime_CCH 0.320475659423
scalar SlicingScenario.node[7].nic.mac1609_4 ReceivedUnicastPackets_SCH 0
scalar SlicingScenario.node[7].nic.mac1609_4 ReceivedBroadcasts_SCH 17377
scalar SlicingScenario.node[7].nic.mac1609_4 SentPackets_SCH 0
scalar SlicingScenario.node[7].nic.mac1609_4 SentAcknowledgements_SCH 0
scalar SlicingScenario.node[7].nic.mac1609_4 SNIRLostPackets_SCH 0
scalar SlicingScenario.node[7].nic.mac1609_4 RXTXLostPackets_SCH 0
scalar SlicingScenario.node[7].nic.mac1609_4 TotalLostPackets_SCH 0
scalar SlicingScenario.node[7].nic.mac1609_4 DroppedPacketsInMac_SCH 0
scalar SlicingScenario.node[7].nic.mac1609_4 TooLittleTime_SCH 0
scalar SlicingScenario.node[7].nic.mac1609_4 TimesIntoBackoff_SCH 0
scalar SlicingScenario.node[7].nic.mac1609_4 SlotsBackoff_SCH 0
scalar SlicingScenario.node[7].nic.mac1609_4 NumInternalContention_SCH 0
scalar SlicingScenario.node[7].nic.mac1609_4 RemainingPacketsInEDCA_SCH 0
scalar SlicingScenario.node[7].nic.mac1609_4 totalBusyTime_SCH 34.405872
scalar SlicingScenario.node[7].veinsmobility startTime 2
scalar SlicingScenario.node[7].veinsmobility totalTime 92
scalar SlicingScenario.node[7].veinsmobility stopTime 95
scalar SlicingScenario.node[7].veinsmobility minSpeed 7.8072843355923
scalar SlicingScenario.node[7].veinsmobility maxSpeed 11.101033631144
scalar SlicingScenario.node[7].veinsmobility totalDistance 979.99326633184
scalar SlicingScenario.node[7].veinsmobility totalCO2Emission 166.02919542959
scalar SlicingScenario.node[10].appl txPackets_CCH_73 0
scalar SlicingScenario.node[10].appl rxPackets_CCH_73 0
scalar SlicingScenario.node[10].appl rxNeighborPackets_CCH_73 0
scalar SlicingScenario.node[10].appl meanDelay_CCH_73 0
scalar SlicingScenario.node[10].appl meanJitter_CCH_73 0
scalar SlicingScenario.node[10].appl meanRxPacketSize_CCH_73 0
scalar SlicingScenario.node[10].appl meanTxPacketSize_CCH_73 0
scalar SlicingScenario.node[10].appl meanRxThroughput_CCH_73 0
scalar SlicingScenario.node[10].appl meanTxThroughput_CCH_73 0
scalar SlicingScenario.node[10].appl rxTimeOfService_CCH_73 0
scalar SlicingScenario.node[10].appl txTimeOfService_CCH_73 0
scalar SlicingScenario.node[10].appl txPackets_SCH_41_73 0
scalar SlicingScenario.node[10].appl rxPackets_SCH_41_73 1756
scalar SlicingScenario.node[10].appl rxNeighborPackets_SCH_41_73 14013
scalar SlicingScenario.node[10].appl meanDelay_SCH_41_73 37.358923745563
scalar SlicingScenario.node[10].appl meanJitter_SCH_41_73 0.043119677668
scalar SlicingScenario.node[10].appl meanRxPacketSize_SCH_41_73 1438
scalar SlicingScenario.node[10].appl meanTxPacketSize_SCH_41_73 0
scalar SlicingScenario.node[10].appl meanRxThroughput_SCH_41_73 255258.14021054
scalar SlicingScenario.node[10].appl meanTxThroughput_SCH_41_73 0
scalar SlicingScenario.node[10].appl rxTimeOfService_SCH_41_73 79.168797450814
scalar SlicingScenario.node[10].appl txTimeOfService_SCH_41_73 0
scalar SlicingScenario.node[10].nic.phy80211p busyTime 0.37266694736845
scalar SlicingScenario.node[10].nic.phy80211p ncollisions 0
scalar SlicingScenario.node[10].nic.phy80211p UnderSensitivityPackets 1505
scalar SlicingScenario.node[10].nic.mac1609_4 ReceivedUnicastPackets_CCH 0
scalar SlicingScenario.node[10].nic.mac1609_4 ReceivedBroadcasts_CCH 313
scalar SlicingScenario.node[10].nic.mac1609_4 SentPackets_CCH 0
scalar SlicingScenario.node[10].nic.mac1609_4 SentAcknowledgements_CCH 0
scalar SlicingScenario.node[10].nic.mac1609_4 SNIRLostPackets_CCH 0
scalar SlicingScenario.node[10].nic.mac1609_4 RXTXLostPackets_CCH 0
scalar SlicingScenario.node[10].nic.mac1609_4 TotalLostPackets_CCH 0
scalar SlicingScenario.node[10].nic.mac1609_4 DroppedPacketsInMac_CCH 0
scalar SlicingScenario.node[10].nic.mac1609_4 TooLittleTime_CCH 0
scalar SlicingScenario.node[10].nic.mac1609_4 TimesIntoBackoff_CCH 0
scalar SlicingScenario.node[10].nic.mac1609_4 SlotsBackoff_CCH 0
scalar SlicingScenario.node[10].nic.mac1609_4 NumInternalContention_CCH 0
scalar SlicingScenario.node[10].nic.mac1609_4 RemainingPacketsInEDCA_CCH 0
scalar SlicingScenario.node[10].nic.mac1609_4 totalBusyTime_CCH 1.157886397882
scalar SlicingScenario.node[10].nic.mac1609_4 ReceivedUnicastPackets_SCH 0
scalar SlicingScenario.node[10].nic.mac1609_4 ReceivedBroadcasts_SCH 17573
scalar SlicingScenario.node[10].nic.mac1609_4 SentPackets_SCH 0
scalar SlicingScenario.node[10].nic.mac1609_4 SentAcknowledgements_SCH 0
scalar SlicingScenario.node[10].nic.mac1609_4 SNIRLostPackets_SCH 0
scalar SlicingScenario.node[10].nic.mac1609_4 RXTXLostPackets_SCH 0
scalar SlicingScenario.node[10].nic.mac1609_4 TotalLostPackets_SCH 0
scalar SlicingScenario.node[10].nic.mac1609_4 DroppedPacketsInMac_SCH 0
scalar SlicingScenario.node[10].nic.mac1609_4 TooLittleTime_SCH 0
scalar SlicingScenario.node[10].nic.mac1609_4 TimesIntoBackoff_SCH 0
scalar SlicingScenario.node[10].nic.mac1609_4 SlotsBackoff_SCH 0
scalar SlicingScenario.node[10].nic.mac1609_4 NumInternalContention_SCH 0
scalar SlicingScenario.node[10].nic.mac1609_4 RemainingPacketsInEDCA_SCH 0
scalar SlicingScenario.node[10].nic.mac1609_4 totalBusyTime_SCH 34.80168
scalar SlicingScenario.node[10].veinsmobility startTime 3
scalar SlicingScenario.node[10].veinsmobility totalTime 94
scalar SlicingScenario.node[10].veinsmobility stopTime 98
scalar SlicingScenario.node[10].veinsmobility minSpeed 4.0241227831198
scalar SlicingScenario.node[10].veinsmobility maxSpeed 11.100057395422
scalar SlicingScenario.node[10].veinsmobility totalDistance 978.45479165148
scalar SlicingScenario.node[10].veinsmobility totalCO2Emission 175.64992485574
scalar SlicingScenario.node[9].appl txPackets_CCH_67 0
scalar SlicingScenario.node[9].appl rxPackets_CCH_67 0
scalar SlicingScenario.node[9].appl rxNeighborPackets_CCH_67 0
scalar SlicingScenario.node[9].appl meanDelay_CCH_67 0
scalar SlicingScenario.node[9].appl meanJitter_CCH_67 0
scalar SlicingScenario.node[9].appl meanRxPacketSize_CCH_67 0
scalar SlicingScenario.node[9].appl meanTxPacketSize_CCH_67 0
scalar SlicingScenario.node[9].appl meanRxThroughput_CCH_67 0
scalar SlicingScenario.node[9].appl meanTxThroughput_CCH_67 0
scalar SlicingScenario.node[9].appl rxTimeOfService_CCH_67 0
scalar SlicingScenario.node[9].appl txTimeOfService_CCH_67 0
scalar SlicingScenario.node[9].appl txPackets_SCH_40_67 0
scalar SlicingScenario.node[9].appl rxPackets_SCH_40_67 232
scalar SlicingScenario.node[9].appl rxNeighborPackets_SCH_40_67 1856
scalar SlicingScenario.node[9].appl meanDelay_SCH_40_67 39.265786860115
scalar SlicingScenario.node[9].appl meanJitter_SCH_40_67 0.326879641269
scalar SlicingScenario.node[9].appl meanRxPacketSize_SCH_40_67 1510
scalar SlicingScenario.node[9].appl meanTxPacketSize_SCH_40_67 0
scalar SlicingScenario.node[9].appl meanRxThroughput_SCH_40_67 36585.924677847
scalar SlicingScenario.node[9].appl meanTxThroughput_SCH_40_67 0
scalar SlicingScenario.node[9].appl rxTimeOfService_SCH_40_67 76.6021366052
scalar SlicingScenario.node[9].appl txTimeOfService_SCH_40_67 0
scalar SlicingScenario.node[9].nic.phy80211p busyTime 0.36824488421056
scalar SlicingScenario.node[9].nic.phy80211p ncollisions 0
scalar SlicingScenario.node[9].nic.phy80211p UnderSensitivityPackets 1717
scalar SlicingScenario.node[9].nic.mac1609_4 ReceivedUnicastPackets_CCH 0
scalar SlicingScenario.node[9].nic.mac1609_4 ReceivedBroadcasts_CCH 200
scalar SlicingScenario.node[9].nic.mac1609_4 SentPackets_CCH 0
scalar SlicingScenario.node[9].nic.mac1609_4 SentAcknowledgements_CCH 0
scalar SlicingScenario.node[9].nic.mac1609_4 SNIRLostPackets_CCH 0
scalar SlicingScenario.node[9].nic.mac1609_4 RXTXLostPackets_CCH 0
scalar SlicingScenario.node[9].nic.mac1609_4 TotalLostPackets_CCH 0
scalar SlicingScenario.node[9].nic.mac1609_4 DroppedPacketsInMac_CCH 0
scalar SlicingScenario.node[9].nic.mac1609_4 TooLittleTime_CCH 0
scalar SlicingScenario.node[9].nic.mac1609_4 TimesIntoBackoff_CCH 0
scalar SlicingScenario.node[9].nic.mac1609_4 SlotsBackoff_CCH 0
scalar SlicingScenario.node[9].nic.mac1609_4 NumInternalContention_CCH 0
scalar SlicingScenario.node[9].nic.mac1609_4 RemainingPacketsInEDCA_CCH 0
scalar SlicingScenario.node[9].nic.mac1609_4 totalBusyTime_CCH 0.748383080083
scalar SlicingScenario.node[9].nic.mac1609_4 ReceivedUnicastPackets_SCH 0
scalar SlicingScenario.node[9].nic.mac1609_4 ReceivedBroadcasts_SCH 17474
scalar SlicingScenario.node[9].nic.mac1609_4 SentPackets_SCH 0
scalar SlicingScenario.node[9].nic.mac1609_4 SentAcknowledgements_SCH 0
scalar SlicingScenario.node[9].nic.mac1609_4 SNIRLostPackets_SCH 0
scalar SlicingScenario.node[9].nic.mac1609_4 RXTXLostPackets_SCH 0
scalar SlicingScenario.node[9].nic.mac1609_4 TotalLostPackets_SCH 0
scalar SlicingScenario.node[9].nic.mac1609_4 DroppedPacketsInMac_SCH 0
scalar SlicingScenario.node[9].nic.mac1609_4 TooLittleTime_SCH 0
scalar SlicingScenario.node[9].nic.mac1609_4 TimesIntoBackoff_SCH 0
scalar SlicingScenario.node[9].nic.mac1609_4 SlotsBackoff_SCH 0
scalar SlicingScenario.node[9].nic.mac1609_4 NumInternalContention_SCH 0
scalar SlicingScenario.node[9].nic.mac1609_4 RemainingPacketsInEDCA_SCH 0
scalar SlicingScenario.node[9].nic.mac1609_4 totalBusyTime_SCH 34.602048
scalar SlicingScenario.node[9].veinsmobility startTime 3
scalar SlicingScenario.node[9].veinsmobility totalTime 94
scalar SlicingScenario.node[9].veinsmobility stopTime 98
scalar SlicingScenario.node[9].veinsmobility minSpeed 4.9590782807893
scalar SlicingScenario.node[9].veinsmobility maxSpeed 11.106659621596
scalar SlicingScenario.node[9].veinsmobility totalDistance 985.50182486584
scalar SlicingScenario.node[9].veinsmobility totalCO2Emission 173.3434076591
scalar SlicingScenario.node[11].appl txPackets_CCH_79 0
scalar SlicingScenario.node[11].appl rxPackets_CCH_79 0
scalar SlicingScenario.node[11].appl rxNeighborPackets_CCH_79 0
scalar SlicingScenario.node[11].appl meanDelay_CCH_79 0
scalar SlicingScenario.node[11].appl meanJitter_CCH_79 0
scalar SlicingScenario.node[11].appl meanRxPacketSize_CCH_79 0
scalar SlicingScenario.node[11].appl meanTxPacketSize_CCH_79 0
scalar SlicingScenario.node[11].appl meanRxThroughput_CCH_79 0
scalar SlicingScenario.node[11].appl meanTxThroughput_CCH_79 0
scalar SlicingScenario.node[11].appl rxTimeOfService_CCH_79 0
scalar SlicingScenario.node[11].appl txTimeOfService_CCH_79 0
scalar SlicingScenario.node[11].appl txPackets_SCH_40_79 0
scalar SlicingScenario.node[11].appl rxPackets_SCH_40_79 247
scalar SlicingScenario.node[11].appl rxNeighborPackets_SCH_40_79 1892
scalar SlicingScenario.node[11].appl meanDelay_SCH_40_79 38.024695450043
scalar SlicingScenario.node[11].appl meanJitter_SCH_40_79 0.30661652646
scalar SlicingScenario.node[11].appl meanRxPacketSize_SCH_40_79 1510
scalar SlicingScenario.node[11].appl meanTxPacketSize_SCH_40_79 0
scalar SlicingScenario.node[11].appl meanRxThroughput_SCH_40_79 38306.787258347
scalar SlicingScenario.node[11].appl meanTxThroughput_SCH_40_79 0
scalar SlicingScenario.node[11].appl rxTimeOfService_SCH_40_79 77.891157508904
scalar SlicingScenario.node[11].appl txTimeOfService_SCH_40_79 0
scalar SlicingScenario.node[11].nic.phy80211p busyTime 0.37716176842107
scalar SlicingScenario.node[11].nic.phy80211p ncollisions 0
scalar SlicingScenario.node[11].nic.phy80211p UnderSensitivityPackets 1289
scalar SlicingScenario.node[11].nic.mac1609_4 ReceivedUnicastPackets_CCH 0
scalar SlicingScenario.node[11].nic.mac1609_4 ReceivedBroadcasts_CCH 202
scalar SlicingScenario.node[11].nic.mac1609_4 SentPackets_CCH 0
scalar SlicingScenario.node[11].nic.mac1609_4 SentAcknowledgements_CCH 0
scalar SlicingScenario.node[11].nic.mac1609_4 SNIRLostPackets_CCH 0
scalar SlicingScenario.node[11].nic.mac1609_4 RXTXLostPackets_CCH 0
scalar SlicingScenario.node[11].nic.mac1609_4 TotalLostPackets_CCH 0
scalar SlicingScenario.node[11].nic.mac1609_4 DroppedPacketsInMac_CCH 0
scalar SlicingScenario.node[11].nic.mac1609_4 TooLittleTime_CCH 0
scalar SlicingScenario.node[11].nic.mac1609_4 TimesIntoBackoff_CCH 0
scalar SlicingScenario.node[11].nic.mac1609_4 SlotsBackoff_CCH 0
scalar SlicingScenario.node[11].nic.mac1609_4 NumInternalContention_CCH 0
scalar SlicingScenario.node[11].nic.mac1609_4 RemainingPacketsInEDCA_CCH 0
scalar SlicingScenario.node[11].nic.mac1609_4 totalBusyTime_CCH 0.754895306418
scalar SlicingScenario.node[11].nic.mac1609_4 ReceivedUnicastPackets_SCH 0
scalar SlicingScenario.node[11].nic.mac1609_4 ReceivedBroadcasts_SCH 17900
scalar SlicingScenario.node[11].nic.mac1609_4 SentPackets_SCH 0
scalar SlicingScenario.node[11].nic.mac1609_4 SentAcknowledgements_SCH 0
scalar SlicingScenario.node[11].nic.mac1609_4 SNIRLostPackets_SCH 0
scalar SlicingScenario.node[11].nic.mac1609_4 RXTXLostPackets_SCH 0
scalar SlicingScenario.node[11].nic.mac1609_4 TotalLostPackets_SCH 0
scalar SlicingScenario.node[11].nic.mac1609_4 DroppedPacketsInMac_SCH 0
scalar SlicingScenario.node[11].nic.mac1609_4 TooLittleTime_SCH 0
scalar SlicingScenario.node[11].nic.mac1609_4 TimesIntoBackoff_SCH 0
scalar SlicingScenario.node[11].nic.mac1609_4 SlotsBackoff_SCH 0
scalar SlicingScenario.node[11].nic.mac1609_4 NumInternalContention_SCH 0
scalar SlicingScenario.node[11].nic.mac1609_4 RemainingPacketsInEDCA_SCH 0
scalar SlicingScenario.node[11].nic.mac1609_4 totalBusyTime_SCH 35.446368
scalar SlicingScenario.node[11].veinsmobility startTime 3
scalar SlicingScenario.node[11].veinsmobility totalTime 94
scalar SlicingScenario.node[11].veinsmobility stopTime 98
scalar SlicingScenario.node[11].veinsmobility minSpeed 4.555267106995
scalar SlicingScenario.node[11].veinsmobility maxSpeed 11.093193362714
scalar SlicingScenario.node[11].veinsmobility totalDistance 981.69150261649
scalar SlicingScenario.node[11].veinsmobility totalCO2Emission 174.95302310319
scalar SlicingScenario.node[8].appl txPackets_CCH_61 0
scalar SlicingScenario.node[8].appl rxPackets_CCH_61 0
scalar SlicingScenario.node[8].appl rxNeighborPackets_CCH_61 0
scalar SlicingScenario.node[8].appl meanDelay_CCH_61 0
scalar SlicingScenario.node[8].appl meanJitter_CCH_61 0
scalar SlicingScenario.node[8].appl meanRxPacketSize_CCH_61 0
scalar SlicingScenario.node[8].appl meanTxPacketSize_CCH_61 0
scalar SlicingScenario.node[8].appl meanRxThroughput_CCH_61 0
scalar SlicingScenario.node[8].appl meanTxThroughput_CCH_61 0
scalar SlicingScenario.node[8].appl rxTimeOfService_CCH_61 0
scalar SlicingScenario.node[8].appl txTimeOfService_CCH_61 0
scalar SlicingScenario.node[8].appl txPackets_SCH_41_61 0
scalar SlicingScenario.node[8].appl rxPackets_SCH_41_61 1582
scalar SlicingScenario.node[8].appl rxNeighborPackets_SCH_41_61 13999
scalar SlicingScenario.node[8].appl meanDelay_SCH_41_61 40.248450034621
scalar SlicingScenario.node[8].appl meanJitter_SCH_41_61 0.047821040893
scalar SlicingScenario.node[8].appl meanRxPacketSize_SCH_41_61 1438
scalar SlicingScenario.node[8].appl meanTxPacketSize_SCH_41_61 0
scalar SlicingScenario.node[8].appl meanRxThroughput_SCH_41_61 241751.48488022
scalar SlicingScenario.node[8].appl meanTxThroughput_SCH_41_61 0
scalar SlicingScenario.node[8].appl rxTimeOfService_SCH_41_61 75.311057588831
scalar SlicingScenario.node[8].appl txTimeOfService_SCH_41_61 0
scalar SlicingScenario.node[8].nic.phy80211p busyTime 0.36820850526319
scalar SlicingScenario.node[8].nic.phy80211p ncollisions 0
scalar SlicingScenario.node[8].nic.phy80211p UnderSensitivityPackets 1719
scalar SlicingScenario.node[8].nic.mac1609_4 ReceivedUnicastPackets_CCH 0
scalar SlicingScenario.node[8].nic.mac1609_4 ReceivedBroadcasts_CCH 65
scalar SlicingScenario.node[8].nic.mac1609_4 SentPackets_CCH 0
scalar SlicingScenario.node[8].nic.mac1609_4 SentAcknowledgements_CCH 0
scalar SlicingScenario.node[8].nic.mac1609_4 SNIRLostPackets_CCH 0
scalar SlicingScenario.node[8].nic.mac1609_4 RXTXLostPackets_CCH 0
scalar SlicingScenario.node[8].nic.mac1609_4 TotalLostPackets_CCH 0
scalar SlicingScenario.node[8].nic.mac1609_4 DroppedPacketsInMac_CCH 0
scalar SlicingScenario.node[8].nic.mac1609_4 TooLittleTime_CCH 0
scalar SlicingScenario.node[8].nic.mac1609_4 TimesIntoBackoff_CCH 0
scalar SlicingScenario.node[8].nic.mac1609_4 SlotsBackoff_CCH 0
scalar SlicingScenario.node[8].nic.mac1609_4 NumInternalContention_CCH 0
scalar SlicingScenario.node[8].nic.mac1609_4 RemainingPacketsInEDCA_CCH 0
scalar SlicingScenario.node[8].nic.mac1609_4 totalBusyTime_CCH 0.235732680927
scalar SlicingScenario.node[8].nic.mac1609_4 ReceivedUnicastPackets_SCH 0
scalar SlicingScenario.node[8].nic.mac1609_4 ReceivedBroadcasts_SCH 17607
scalar SlicingScenario.node[8].nic.mac1609_4 SentPackets_SCH 0
scalar SlicingScenario.node[8].nic.mac1609_4 SentAcknowledgements_SCH 0
scalar SlicingScenario.node[8].nic.mac1609_4 SNIRLostPackets_SCH 0
scalar SlicingScenario.node[8].nic.mac1609_4 RXTXLostPackets_SCH 0
scalar SlicingScenario.node[8].nic.mac1609_4 TotalLostPackets_SCH 0
scalar SlicingScenario.node[8].nic.mac1609_4 DroppedPacketsInMac_SCH 0
scalar SlicingScenario.node[8].nic.mac1609_4 TooLittleTime_SCH 0
scalar SlicingScenario.node[8].nic.mac1609_4 TimesIntoBackoff_SCH 0
scalar SlicingScenario.node[8].nic.mac1609_4 SlotsBackoff_SCH 0
scalar SlicingScenario.node[8].nic.mac1609_4 NumInternalContention_SCH 0
scalar SlicingScenario.node[8].nic.mac1609_4 RemainingPacketsInEDCA_SCH 0
scalar SlicingScenario.node[8].nic.mac1609_4 totalBusyTime_SCH 34.861104
scalar SlicingScenario.node[8].veinsmobility startTime 3
scalar SlicingScenario.node[8].veinsmobility totalTime 94
scalar SlicingScenario.node[8].veinsmobility stopTime 98
scalar SlicingScenario.node[8].veinsmobility minSpeed 4.2146555369459
scalar SlicingScenario.node[8].veinsmobility maxSpeed 11.098088408718
scalar SlicingScenario.node[8].veinsmobility totalDistance 979.0146835925
scalar SlicingScenario.node[8].veinsmobility totalCO2Emission 174.97553188592
scalar SlicingScenario.node[15].appl txPackets_CCH_103 0
scalar SlicingScenario.node[15].appl rxPackets_CCH_103 0
scalar SlicingScenario.node[15].appl rxNeighborPackets_CCH_103 0
scalar SlicingScenario.node[15].appl meanDelay_CCH_103 0
scalar SlicingScenario.node[15].appl meanJitter_CCH_103 0
scalar SlicingScenario.node[15].appl meanRxPacketSize_CCH_103 0
scalar SlicingScenario.node[15].appl meanTxPacketSize_CCH_103 0
scalar SlicingScenario.node[15].appl meanRxThroughput_CCH_103 0
scalar SlicingScenario.node[15].appl meanTxThroughput_CCH_103 0
scalar SlicingScenario.node[15].appl rxTimeOfService_CCH_103 0
scalar SlicingScenario.node[15].appl txTimeOfService_CCH_103 0
scalar SlicingScenario.node[15].appl txPackets_SCH_41_103 0
scalar SlicingScenario.node[15].appl rxPackets_SCH_41_103 1246
scalar SlicingScenario.node[15].appl rxNeighborPackets_SCH_41_103 14891
scalar SlicingScenario.node[15].appl meanDelay_SCH_41_103 48.782339842577
scalar SlicingScenario.node[15].appl meanJitter_SCH_41_103 0.062162857058
scalar SlicingScenario.node[15].appl meanRxPacketSize_SCH_41_103 1438
scalar SlicingScenario.node[15].appl meanTxPacketSize_SCH_41_103 0
scalar SlicingScenario.node[15].appl meanRxThroughput_SCH_41_103 236584.9067815
scalar SlicingScenario.node[15].appl meanTxThroughput_SCH_41_103 0
scalar SlicingScenario.node[15].appl rxTimeOfService_SCH_41_103 60.611136167041
scalar SlicingScenario.node[15].appl txTimeOfService_SCH_41_103 0
scalar SlicingScenario.node[15].nic.phy80211p busyTime 0.38156917894738
scalar SlicingScenario.node[15].nic.phy80211p ncollisions 0
scalar SlicingScenario.node[15].nic.phy80211p UnderSensitivityPackets 1505
scalar SlicingScenario.node[15].nic.mac1609_4 ReceivedUnicastPackets_CCH 0
scalar SlicingScenario.node[15].nic.mac1609_4 ReceivedBroadcasts_CCH 85
scalar SlicingScenario.node[15].nic.mac1609_4 SentPackets_CCH 0
scalar SlicingScenario.node[15].nic.mac1609_4 SentAcknowledgements_CCH 0
scalar SlicingScenario.node[15].nic.mac1609_4 SNIRLostPackets_CCH 0
scalar SlicingScenario.node[15].nic.mac1609_4 RXTXLostPackets_CCH 0
scalar SlicingScenario.node[15].nic.mac1609_4 TotalLostPackets_CCH 0
scalar SlicingScenario.node[15].nic.mac1609_4 DroppedPacketsInMac_CCH 0
scalar SlicingScenario.node[15].nic.mac1609_4 TooLittleTime_CCH 0
scalar SlicingScenario.node[15].nic.mac1609_4 TimesIntoBackoff_CCH 0
scalar SlicingScenario.node[15].nic.mac1609_4 SlotsBackoff_CCH 0
scalar SlicingScenario.node[15].nic.mac1609_4 NumInternalContention_CCH 0
scalar SlicingScenario.node[15].nic.mac1609_4 RemainingPacketsInEDCA_CCH 0
scalar SlicingScenario.node[15].nic.mac1609_4 totalBusyTime_CCH 0.311843018042
scalar SlicingScenario.node[15].nic.mac1609_4 ReceivedUnicastPackets_SCH 0
scalar SlicingScenario.node[15].nic.mac1609_4 ReceivedBroadcasts_SCH 18227
scalar SlicingScenario.node[15].nic.mac1609_4 SentPackets_SCH 0
scalar SlicingScenario.node[15].nic.mac1609_4 SentAcknowledgements_SCH 0
scalar SlicingScenario.node[15].nic.mac1609_4 SNIRLostPackets_SCH 0
scalar SlicingScenario.node[15].nic.mac1609_4 RXTXLostPackets_SCH 0
scalar SlicingScenario.node[15].nic.mac1609_4 TotalLostPackets_SCH 0
scalar SlicingScenario.node[15].nic.mac1609_4 DroppedPacketsInMac_SCH 0
scalar SlicingScenario.node[15].nic.mac1609_4 TooLittleTime_SCH 0
scalar SlicingScenario.node[15].nic.mac1609_4 TimesIntoBackoff_SCH 0
scalar SlicingScenario.node[15].nic.mac1609_4 SlotsBackoff_SCH 0
scalar SlicingScenario.node[15].nic.mac1609_4 NumInternalContention_SCH 0
scalar SlicingScenario.node[15].nic.mac1609_4 RemainingPacketsInEDCA_SCH 0
scalar SlicingScenario.node[15].nic.mac1609_4 totalBusyTime_SCH 36.089712
scalar SlicingScenario.node[15].veinsmobility startTime 5
scalar SlicingScenario.node[15].veinsmobility totalTime 94
scalar SlicingScenario.node[15].veinsmobility stopTime 100
scalar SlicingScenario.node[15].veinsmobility minSpeed 5.0216967651604
scalar SlicingScenario.node[15].veinsmobility maxSpeed 11.103790090317
scalar SlicingScenario.node[15].veinsmobility totalDistance 983.83930594055
scalar SlicingScenario.node[15].veinsmobility totalCO2Emission 174.14287150514
scalar SlicingScenario.node[13].appl txPackets_CCH_91 0
scalar SlicingScenario.node[13].appl rxPackets_CCH_91 0
scalar SlicingScenario.node[13].appl rxNeighborPackets_CCH_91 0
scalar SlicingScenario.node[13].appl meanDelay_CCH_91 0
scalar SlicingScenario.node[13].appl meanJitter_CCH_91 0
scalar SlicingScenario.node[13].appl meanRxPacketSize_CCH_91 0
scalar SlicingScenario.node[13].appl meanTxPacketSize_CCH_91 0
scalar SlicingScenario.node[13].appl meanRxThroughput_CCH_91 0
scalar SlicingScenario.node[13].appl meanTxThroughput_CCH_91 0
scalar SlicingScenario.node[13].appl rxTimeOfService_CCH_91 0
scalar SlicingScenario.node[13].appl txTimeOfService_CCH_91 0
scalar SlicingScenario.node[13].appl txPackets_SCH_40_91 0
scalar SlicingScenario.node[13].appl rxPackets_SCH_40_91 168
scalar SlicingScenario.node[13].appl rxNeighborPackets_SCH_40_91 1983
scalar SlicingScenario.node[13].appl meanDelay_SCH_40_91 49.680038693934
scalar SlicingScenario.node[13].appl meanJitter_SCH_40_91 0.462833151581
scalar SlicingScenario.node[13].appl meanRxPacketSize_SCH_40_91 1510
scalar SlicingScenario.node[13].appl meanTxPacketSize_SCH_40_91 0
scalar SlicingScenario.node[13].appl meanRxThroughput_SCH_40_91 34755.854154373
scalar SlicingScenario.node[13].appl meanTxThroughput_SCH_40_91 0
scalar SlicingScenario.node[13].appl rxTimeOfService_SCH_40_91 58.391314193745
scalar SlicingScenario.node[13].appl txTimeOfService_SCH_40_91 0
scalar SlicingScenario.node[13].nic.phy80211p busyTime 0.37716884210528
scalar SlicingScenario.node[13].nic.phy80211p ncollisions 0
scalar SlicingScenario.node[13].nic.phy80211p UnderSensitivityPackets 1716
scalar SlicingScenario.node[13].nic.mac1609_4 ReceivedUnicastPackets_CCH 0
scalar SlicingScenario.node[13].nic.mac1609_4 ReceivedBroadcasts_CCH 32
scalar SlicingScenario.node[13].nic.mac1609_4 SentPackets_CCH 0
scalar SlicingScenario.node[13].nic.mac1609_4 SentAcknowledgements_CCH 0
scalar SlicingScenario.node[13].nic.mac1609_4 SNIRLostPackets_CCH 0
scalar SlicingScenario.node[13].nic.mac1609_4 RXTXLostPackets_CCH 0
scalar SlicingScenario.node[13].nic.mac1609_4 TotalLostPackets_CCH 0
scalar SlicingScenario.node[13].nic.mac1609_4 DroppedPacketsInMac_CCH 0
scalar SlicingScenario.node[13].nic.mac1609_4 TooLittleTime_CCH 0
scalar SlicingScenario.node[13].nic.mac1609_4 TimesIntoBackoff_CCH 0
scalar SlicingScenario.node[13].nic.mac1609_4 SlotsBackoff_CCH 0
scalar SlicingScenario.node[13].nic.mac1609_4 NumInternalContention_CCH 0
scalar SlicingScenario.node[13].nic.mac1609_4 RemainingPacketsInEDCA_CCH 0
scalar SlicingScenario.node[13].nic.mac1609_4 totalBusyTime_CCH 0.121104606017
scalar SlicingScenario.node[13].nic.mac1609_4 ReceivedUnicastPackets_SCH 0
scalar SlicingScenario.node[13].nic.mac1609_4 ReceivedBroadcasts_SCH 18069
scalar SlicingScenario.node[13].nic.mac1609_4 SentPackets_SCH 0
scalar SlicingScenario.node[13].nic.mac1609_4 SentAcknowledgements_SCH 0
scalar SlicingScenario.node[13].nic.mac1609_4 SNIRLostPackets_SCH 0
scalar SlicingScenario.node[13].nic.mac1609_4 RXTXLostPackets_SCH 0
scalar SlicingScenario.node[13].nic.mac1609_4 TotalLostPackets_SCH 0
scalar SlicingScenario.node[13].nic.mac1609_4 DroppedPacketsInMac_SCH 0
scalar SlicingScenario.node[13].nic.mac1609_4 TooLittleTime_SCH 0
scalar SlicingScenario.node[13].nic.mac1609_4 TimesIntoBackoff_SCH 0
scalar SlicingScenario.node[13].nic.mac1609_4 SlotsBackoff_SCH 0
scalar SlicingScenario.node[13].nic.mac1609_4 NumInternalContention_SCH 0
scalar SlicingScenario.node[13].nic.mac1609_4 RemainingPacketsInEDCA_SCH 0
scalar SlicingScenario.node[13].nic.mac1609_4 totalBusyTime_SCH 35.768304
scalar SlicingScenario.node[13].veinsmobility startTime 5
scalar SlicingScenario.node[13].veinsmobility totalTime 94
scalar SlicingScenario.node[13].veinsmobility stopTime 100
scalar SlicingScenario.node[13].veinsmobility minSpeed 4.0154911378557
scalar SlicingScenario.node[13].veinsmobility maxSpeed 11.109982828507
scalar SlicingScenario.node[13].veinsmobility totalDistance 977.27555146145
scalar SlicingScenario.node[13].veinsmobility totalCO2Emission 174.93824131411
scalar SlicingScenario.node[12].appl txPackets_CCH_85 0
scalar SlicingScenario.node[12].appl rxPackets_CCH_85 0
scalar SlicingScenario.node[12].appl rxNeighborPackets_CCH_85 0
scalar SlicingScenario.node[12].appl meanDelay_CCH_85 0
scalar SlicingScenario.node[12].appl meanJitter_CCH_85 0
scalar SlicingScenario.node[12].appl meanRxPacketSize_CCH_85 0
scalar SlicingScenario.node[12].appl meanTxPacketSize_CCH_85 0
scalar SlicingScenario.node[12].appl meanRxThroughput_CCH_85 0
scalar SlicingScenario.node[12].appl meanTxThroughput_CCH_85 0
scalar SlicingScenario.node[12].appl rxTimeOfService_CCH_85 0
scalar SlicingScenario.node[12].appl txTimeOfService_CCH_85 0
scalar SlicingScenario.node[12].appl txPackets_SCH_40_85 0
scalar SlicingScenario.node[12].appl rxPackets_SCH_40_85 156
scalar SlicingScenario.node[12].appl rxNeighborPackets_SCH_40_85 2076
scalar SlicingScenario.node[12].appl meanDelay_SCH_40_85 52.801527883342
scalar SlicingScenario.node[12].appl meanJitter_SCH_40_85 0.505052377377
scalar SlicingScenario.node[12].appl meanRxPacketSize_SCH_40_85 1510
scalar SlicingScenario.node[12].appl meanTxPacketSize_SCH_40_85 0
scalar SlicingScenario.node[12].appl meanRxThroughput_SCH_40_85 34764.859254594
scalar SlicingScenario.node[12].appl meanTxThroughput_SCH_40_85 0
scalar SlicingScenario.node[12].appl rxTimeOfService_SCH_40_85 54.20646136374
scalar SlicingScenario.node[12].appl txTimeOfService_SCH_40_85 0
scalar SlicingScenario.node[12].nic.phy80211p busyTime 0.38651900000001
scalar SlicingScenario.node[12].nic.phy80211p ncollisions 0
scalar SlicingScenario.node[12].nic.phy80211p UnderSensitivityPackets 1286
scalar SlicingScenario.node[12].nic.mac1609_4 ReceivedUnicastPackets_CCH 0
scalar SlicingScenario.node[12].nic.mac1609_4 ReceivedBroadcasts_CCH 159
scalar SlicingScenario.node[12].nic.mac1609_4 SentPackets_CCH 0
scalar SlicingScenario.node[12].nic.mac1609_4 SentAcknowledgements_CCH 0
scalar SlicingScenario.node[12].nic.mac1609_4 SNIRLostPackets_CCH 0
scalar SlicingScenario.node[12].nic.mac1609_4 RXTXLostPackets_CCH 0
scalar SlicingScenario.node[12].nic.mac1609_4 TotalLostPackets_CCH 0
scalar SlicingScenario.node[12].nic.mac1609_4 DroppedPacketsInMac_CCH 0
scalar SlicingScenario.node[12].nic.mac1609_4 TooLittleTime_CCH 0
scalar SlicingScenario.node[12].nic.mac1609_4 TimesIntoBackoff_CCH 0
scalar SlicingScenario.node[12].nic.mac1609_4 SlotsBackoff_CCH 0
scalar SlicingScenario.node[12].nic.mac1609_4 NumInternalContention_CCH 0
scalar SlicingScenario.node[12].nic.mac1609_4 RemainingPacketsInEDCA_CCH 0
scalar SlicingScenario.node[12].nic.mac1609_4 totalBusyTime_CCH 0.595650413965
scalar SlicingScenario.node[12].nic.mac1609_4 ReceivedUnicastPackets_SCH 0
scalar SlicingScenario.node[12].nic.mac1609_4 ReceivedBroadcasts_SCH 18586
scalar SlicingScenario.node[12].nic.mac1609_4 SentPackets_SCH 0
scalar SlicingScenario.node[12].nic.mac1609_4 SentAcknowledgements_SCH 0
scalar SlicingScenario.node[12].nic.mac1609_4 SNIRLostPackets_SCH 0
scalar SlicingScenario.node[12].nic.mac1609_4 RXTXLostPackets_SCH 0
scalar SlicingScenario.node[12].nic.mac1609_4 TotalLostPackets_SCH 0
scalar SlicingScenario.node[12].nic.mac1609_4 DroppedPacketsInMac_SCH 0
scalar SlicingScenario.node[12].nic.mac1609_4 TooLittleTime_SCH 0
scalar SlicingScenario.node[12].nic.mac1609_4 TimesIntoBackoff_SCH 0
scalar SlicingScenario.node[12].nic.mac1609_4 SlotsBackoff_SCH 0
scalar SlicingScenario.node[12].nic.mac1609_4 NumInternalContention_SCH 0
scalar SlicingScenario.node[12].nic.mac1609_4 RemainingPacketsInEDCA_SCH 0
scalar SlicingScenario.node[12].nic.mac1609_4 totalBusyTime_SCH 36.801792
scalar SlicingScenario.node[12].veinsmobility startTime 5
scalar SlicingScenario.node[12].veinsmobility totalTime 95
scalar SlicingScenario.node[12].veinsmobility stopTime 101
scalar SlicingScenario.node[12].veinsmobility minSpeed 3.2954086470343
scalar SlicingScenario.node[12].veinsmobility maxSpeed 11.106236898587
scalar SlicingScenario.node[12].veinsmobility totalDistance 981.8362857451
scalar SlicingScenario.node[12].veinsmobility totalCO2Emission 177.23316201282
scalar SlicingScenario.node[14].appl txPackets_CCH_97 0
scalar SlicingScenario.node[14].appl rxPackets_CCH_97 0
scalar SlicingScenario.node[14].appl rxNeighborPackets_CCH_97 0
scalar SlicingScenario.node[14].appl meanDelay_CCH_97 0
scalar SlicingScenario.node[14].appl meanJitter_CCH_97 0
scalar SlicingScenario.node[14].appl meanRxPacketSize_CCH_97 0
scalar SlicingScenario.node[14].appl meanTxPacketSize_CCH_97 0
scalar SlicingScenario.node[14].appl meanRxThroughput_CCH_97 0
scalar SlicingScenario.node[14].appl meanTxThroughput_CCH_97 0
scalar SlicingScenario.node[14].appl rxTimeOfService_CCH_97 0
scalar SlicingScenario.node[14].appl txTimeOfService_CCH_97 0
scalar SlicingScenario.node[14].appl txPackets_SCH_41_97 0
scalar SlicingScenario.node[14].appl rxPackets_SCH_41_97 1246
scalar SlicingScenario.node[14].appl rxNeighborPackets_SCH_41_97 15076
scalar SlicingScenario.node[14].appl meanDelay_SCH_41_97 49.997246182696
scalar SlicingScenario.node[14].appl meanJitter_SCH_41_97 0.063657090693
scalar SlicingScenario.node[14].appl meanRxPacketSize_SCH_41_97 1438
scalar SlicingScenario.node[14].appl meanTxPacketSize_SCH_41_97 0
scalar SlicingScenario.node[14].appl meanRxThroughput_SCH_41_97 232033.60388354
scalar SlicingScenario.node[14].appl meanTxThroughput_SCH_41_97 0
scalar SlicingScenario.node[14].appl rxTimeOfService_SCH_41_97 61.800014135872
scalar SlicingScenario.node[14].appl txTimeOfService_SCH_41_97 0
scalar SlicingScenario.node[14].nic.phy80211p busyTime 0.3781390515464
scalar SlicingScenario.node[14].nic.phy80211p ncollisions 0
scalar SlicingScenario.node[14].nic.phy80211p UnderSensitivityPackets 1716
scalar SlicingScenario.node[14].nic.mac1609_4 ReceivedUnicastPackets_CCH 0
scalar SlicingScenario.node[14].nic.mac1609_4 ReceivedBroadcasts_CCH 0
scalar SlicingScenario.node[14].nic.mac1609_4 SentPackets_CCH 0
scalar SlicingScenario.node[14].nic.mac1609_4 SentAcknowledgements_CCH 0
scalar SlicingScenario.node[14].nic.mac1609_4 SNIRLostPackets_CCH 0
scalar SlicingScenario.node[14].nic.mac1609_4 RXTXLostPackets_CCH 0
scalar SlicingScenario.node[14].nic.mac1609_4 TotalLostPackets_CCH 0
scalar SlicingScenario.node[14].nic.mac1609_4 DroppedPacketsInMac_CCH 0
scalar SlicingScenario.node[14].nic.mac1609_4 TooLittleTime_CCH 0
scalar SlicingScenario.node[14].nic.mac1609_4 TimesIntoBackoff_CCH 0
scalar SlicingScenario.node[14].nic.mac1609_4 SlotsBackoff_CCH 0
scalar SlicingScenario.node[14].nic.mac1609_4 NumInternalContention_CCH 0
scalar SlicingScenario.node[14].nic.mac1609_4 RemainingPacketsInEDCA_CCH 0
scalar SlicingScenario.node[14].nic.mac1609_4 totalBusyTime_CCH 0
scalar SlicingScenario.node[14].nic.mac1609_4 ReceivedUnicastPackets_SCH 0
scalar SlicingScenario.node[14].nic.mac1609_4 ReceivedBroadcasts_SCH 18530
scalar SlicingScenario.node[14].nic.mac1609_4 SentPackets_SCH 0
scalar SlicingScenario.node[14].nic.mac1609_4 SentAcknowledgements_SCH 0
scalar SlicingScenario.node[14].nic.mac1609_4 SNIRLostPackets_SCH 0
scalar SlicingScenario.node[14].nic.mac1609_4 RXTXLostPackets_SCH 0
scalar SlicingScenario.node[14].nic.mac1609_4 TotalLostPackets_SCH 0
scalar SlicingScenario.node[14].nic.mac1609_4 DroppedPacketsInMac_SCH 0
scalar SlicingScenario.node[14].nic.mac1609_4 TooLittleTime_SCH 0
scalar SlicingScenario.node[14].nic.mac1609_4 TimesIntoBackoff_SCH 0
scalar SlicingScenario.node[14].nic.mac1609_4 SlotsBackoff_SCH 0
scalar SlicingScenario.node[14].nic.mac1609_4 NumInternalContention_SCH 0
scalar SlicingScenario.node[14].nic.mac1609_4 RemainingPacketsInEDCA_SCH 0
scalar SlicingScenario.node[14].nic.mac1609_4 totalBusyTime_SCH 36.679488
scalar SlicingScenario.node[14].veinsmobility startTime 5
scalar SlicingScenario.node[14].veinsmobility totalTime 96
scalar SlicingScenario.node[14].veinsmobility stopTime 102
scalar SlicingScenario.node[14].veinsmobility minSpeed 2.6116476077307
scalar SlicingScenario.node[14].veinsmobility maxSpeed 11.104990615407
scalar SlicingScenario.node[14].veinsmobility totalDistance 984.9431942984
scalar SlicingScenario.node[14].veinsmobility totalCO2Emission 177.98614784065
scalar SlicingScenario.node[18].appl txPackets_CCH_121 0
scalar SlicingScenario.node[18].appl rxPackets_CCH_121 0
scalar SlicingScenario.node[18].appl rxNeighborPackets_CCH_121 0
scalar SlicingScenario.node[18].appl meanDelay_CCH_121 0
scalar SlicingScenario.node[18].appl meanJitter_CCH_121 0
scalar SlicingScenario.node[18].appl meanRxPacketSize_CCH_121 0
scalar SlicingScenario.node[18].appl meanTxPacketSize_CCH_121 0
scalar SlicingScenario.node[18].appl meanRxThroughput_CCH_121 0
scalar SlicingScenario.node[18].appl meanTxThroughput_CCH_121 0
scalar SlicingScenario.node[18].appl rxTimeOfService_CCH_121 0
scalar SlicingScenario.node[18].appl txTimeOfService_CCH_121 0
scalar SlicingScenario.node[18].appl txPackets_SCH_41_121 0
scalar SlicingScenario.node[18].appl rxPackets_SCH_41_121 483
scalar SlicingScenario.node[18].appl rxNeighborPackets_SCH_41_121 16033
scalar SlicingScenario.node[18].appl meanDelay_SCH_41_121 67.555079172892
scalar SlicingScenario.node[18].appl meanJitter_SCH_41_121 0.164095250959
scalar SlicingScenario.node[18].appl meanRxPacketSize_SCH_41_121 1438
scalar SlicingScenario.node[18].appl meanTxPacketSize_SCH_41_121 0
scalar SlicingScenario.node[18].appl meanRxThroughput_SCH_41_121 196256.3901991
scalar SlicingScenario.node[18].appl meanTxThroughput_SCH_41_121 0
scalar SlicingScenario.node[18].appl rxTimeOfService_SCH_41_121 28.323358003073
scalar SlicingScenario.node[18].appl txTimeOfService_SCH_41_121 0
scalar SlicingScenario.node[18].nic.phy80211p busyTime 0.39059469473685
scalar SlicingScenario.node[18].nic.phy80211p ncollisions 0
scalar SlicingScenario.node[18].nic.phy80211p UnderSensitivityPackets 1500
scalar SlicingScenario.node[18].nic.mac1609_4 ReceivedUnicastPackets_CCH 0
scalar SlicingScenario.node[18].nic.mac1609_4 ReceivedBroadcasts_CCH 243
scalar SlicingScenario.node[18].nic.mac1609_4 SentPackets_CCH 0
scalar SlicingScenario.node[18].nic.mac1609_4 SentAcknowledgements_CCH 0
scalar SlicingScenario.node[18].nic.mac1609_4 SNIRLostPackets_CCH 0
scalar SlicingScenario.node[18].nic.mac1609_4 RXTXLostPackets_CCH 0
scalar SlicingScenario.node[18].nic.mac1609_4 TotalLostPackets_CCH 0
scalar SlicingScenario.node[18].nic.mac1609_4 DroppedPacketsInMac_CCH 0
scalar SlicingScenario.node[18].nic.mac1609_4 TooLittleTime_CCH 0
scalar SlicingScenario.node[18].nic.mac1609_4 TimesIntoBackoff_CCH 0
scalar SlicingScenario.node[18].nic.mac1609_4 SlotsBackoff_CCH 0
scalar SlicingScenario.node[18].nic.mac1609_4 NumInternalContention_CCH 0
scalar SlicingScenario.node[18].nic.mac1609_4 RemainingPacketsInEDCA_CCH 0
scalar SlicingScenario.node[18].nic.mac1609_4 totalBusyTime_CCH 0.910961689157
scalar SlicingScenario.node[18].nic.mac1609_4 ReceivedUnicastPackets_SCH 0
scalar SlicingScenario.node[18].nic.mac1609_4 ReceivedBroadcasts_SCH 18503
scalar SlicingScenario.node[18].nic.mac1609_4 SentPackets_SCH 0
scalar SlicingScenario.node[18].nic.mac1609_4 SentAcknowledgements_SCH 0
scalar SlicingScenario.node[18].nic.mac1609_4 SNIRLostPackets_SCH 0
scalar SlicingScenario.node[18].nic.mac1609_4 RXTXLostPackets_SCH 0
scalar SlicingScenario.node[18].nic.mac1609_4 TotalLostPackets_SCH 0
scalar SlicingScenario.node[18].nic.mac1609_4 DroppedPacketsInMac_SCH 0
scalar SlicingScenario.node[18].nic.mac1609_4 TooLittleTime_SCH 0
scalar SlicingScenario.node[18].nic.mac1609_4 TimesIntoBackoff_SCH 0
scalar SlicingScenario.node[18].nic.mac1609_4 SlotsBackoff_SCH 0
scalar SlicingScenario.node[18].nic.mac1609_4 NumInternalContention_SCH 0
scalar SlicingScenario.node[18].nic.mac1609_4 RemainingPacketsInEDCA_SCH 0
scalar SlicingScenario.node[18].nic.mac1609_4 totalBusyTime_SCH 36.641232
scalar SlicingScenario.node[18].veinsmobility startTime 7
scalar SlicingScenario.node[18].veinsmobility totalTime 94
scalar SlicingScenario.node[18].veinsmobility stopTime 102
scalar SlicingScenario.node[18].veinsmobility minSpeed 4.8095651571735
scalar SlicingScenario.node[18].veinsmobility maxSpeed 11.109864355195
scalar SlicingScenario.node[18].veinsmobility totalDistance 983.71960160411
scalar SlicingScenario.node[18].veinsmobility totalCO2Emission 175.00613263925
scalar SlicingScenario.node[20].appl txPackets_CCH_133 0
scalar SlicingScenario.node[20].appl rxPackets_CCH_133 0
scalar SlicingScenario.node[20].appl rxNeighborPackets_CCH_133 0
scalar SlicingScenario.node[20].appl meanDelay_CCH_133 0
scalar SlicingScenario.node[20].appl meanJitter_CCH_133 0
scalar SlicingScenario.node[20].appl meanRxPacketSize_CCH_133 0
scalar SlicingScenario.node[20].appl meanTxPacketSize_CCH_133 0
scalar SlicingScenario.node[20].appl meanRxThroughput_CCH_133 0
scalar SlicingScenario.node[20].appl meanTxThroughput_CCH_133 0
scalar SlicingScenario.node[20].appl rxTimeOfService_CCH_133 0
scalar SlicingScenario.node[20].appl txTimeOfService_CCH_133 0
scalar SlicingScenario.node[20].appl txPackets_SCH_40_133 0
scalar SlicingScenario.node[20].appl rxPackets_SCH_40_133 0
scalar SlicingScenario.node[20].appl rxNeighborPackets_SCH_40_133 2295
scalar SlicingScenario.node[20].appl meanDelay_SCH_40_133 0
scalar SlicingScenario.node[20].appl meanJitter_SCH_40_133 0
scalar SlicingScenario.node[20].appl meanRxPacketSize_SCH_40_133 0
scalar SlicingScenario.node[20].appl meanTxPacketSize_SCH_40_133 0
scalar SlicingScenario.node[20].appl meanRxThroughput_SCH_40_133 0
scalar SlicingScenario.node[20].appl meanTxThroughput_SCH_40_133 0
scalar SlicingScenario.node[20].appl rxTimeOfService_SCH_40_133 0
scalar SlicingScenario.node[20].appl txTimeOfService_SCH_40_133 0
scalar SlicingScenario.node[20].nic.phy80211p busyTime 0.39706762105263
scalar SlicingScenario.node[20].nic.phy80211p ncollisions 0
scalar SlicingScenario.node[20].nic.phy80211p UnderSensitivityPackets 1287
scalar SlicingScenario.node[20].nic.mac1609_4 ReceivedUnicastPackets_CCH 0
scalar SlicingScenario.node[20].nic.mac1609_4 ReceivedBroadcasts_CCH 180
scalar SlicingScenario.node[20].nic.mac1609_4 SentPackets_CCH 0
scalar SlicingScenario.node[20].nic.mac1609_4 SentAcknowledgements_CCH 0
scalar SlicingScenario.node[20].nic.mac1609_4 SNIRLostPackets_CCH 0
scalar SlicingScenario.node[20].nic.mac1609_4 RXTXLostPackets_CCH 0
scalar SlicingScenario.node[20].nic.mac1609_4 TotalLostPackets_CCH 0
scalar SlicingScenario.node[20].nic.mac1609_4 DroppedPacketsInMac_CCH 0
scalar SlicingScenario.node[20].nic.mac1609_4 TooLittleTime_CCH 0
scalar SlicingScenario.node[20].nic.mac1609_4 TimesIntoBackoff_CCH 0
scalar SlicingScenario.node[20].nic.mac1609_4 SlotsBackoff_CCH 0
scalar SlicingScenario.node[20].nic.mac1609_4 NumInternalContention_CCH 0
scalar SlicingScenario.node[20].nic.mac1609_4 RemainingPacketsInEDCA_CCH 0
scalar SlicingScenario.node[20].nic.mac1609_4 totalBusyTime_CCH 0.667812434709
scalar SlicingScenario.node[20].nic.mac1609_4 ReceivedUnicastPackets_SCH 0
scalar SlicingScenario.node[20].nic.mac1609_4 ReceivedBroadcasts_SCH 18875
scalar SlicingScenario.node[20].nic.mac1609_4 SentPackets_SCH 0
scalar SlicingScenario.node[20].nic.mac1609_4 SentAcknowledgements_SCH 0
scalar SlicingScenario.node[20].nic.mac1609_4 SNIRLostPackets_SCH 0
scalar SlicingScenario.node[20].nic.mac1609_4 RXTXLostPackets_SCH 0
scalar SlicingScenario.node[20].nic.mac1609_4 TotalLostPackets_SCH 0
scalar SlicingScenario.node[20].nic.mac1609_4 DroppedPacketsInMac_SCH 0
scalar SlicingScenario.node[20].nic.mac1609_4 TooLittleTime_SCH 0
scalar SlicingScenario.node[20].nic.mac1609_4 TimesIntoBackoff_SCH 0
scalar SlicingScenario.node[20].nic.mac1609_4 SlotsBackoff_SCH 0
scalar SlicingScenario.node[20].nic.mac1609_4 NumInternalContention_SCH 0
scalar SlicingScenario.node[20].nic.mac1609_4 RemainingPacketsInEDCA_SCH 0
scalar SlicingScenario.node[20].nic.mac1609_4 totalBusyTime_SCH 37.382832
scalar SlicingScenario.node[20].veinsmobility startTime 9
scalar SlicingScenario.node[20].veinsmobility totalTime 94
scalar SlicingScenario.node[20].veinsmobility stopTime 104
scalar SlicingScenario.node[20].veinsmobility minSpeed 5.0827018908258
scalar SlicingScenario.node[20].veinsmobility maxSpeed 11.108074693838
scalar SlicingScenario.node[20].veinsmobility totalDistance 981.3906994097
scalar SlicingScenario.node[20].veinsmobility totalCO2Emission 173.67806566479
scalar SlicingScenario.node[17].appl txPackets_CCH_115 0
scalar SlicingScenario.node[17].appl rxPackets_CCH_115 0
scalar SlicingScenario.node[17].appl rxNeighborPackets_CCH_115 0
scalar SlicingScenario.node[17].appl meanDelay_CCH_115 0
scalar SlicingScenario.node[17].appl meanJitter_CCH_115 0
scalar SlicingScenario.node[17].appl meanRxPacketSize_CCH_115 0
scalar SlicingScenario.node[17].appl meanTxPacketSize_CCH_115 0
scalar SlicingScenario.node[17].appl meanRxThroughput_CCH_115 0
scalar SlicingScenario.node[17].appl meanTxThroughput_CCH_115 0
scalar SlicingScenario.node[17].appl rxTimeOfService_CCH_115 0
scalar SlicingScenario.node[17].appl txTimeOfService_CCH_115 0
scalar SlicingScenario.node[17].appl txPackets_SCH_40_115 0
scalar SlicingScenario.node[17].appl rxPackets_SCH_40_115 73
scalar SlicingScenario.node[17].appl rxNeighborPackets_SCH_40_115 2208
scalar SlicingScenario.node[17].appl meanDelay_SCH_40_115 68.237590652383
scalar SlicingScenario.node[17].appl meanJitter_SCH_40_115 1.123062362654
scalar SlicingScenario.node[17].appl meanRxPacketSize_SCH_40_115 1510
scalar SlicingScenario.node[17].appl meanTxPacketSize_SCH_40_115 0
scalar SlicingScenario.node[17].appl meanRxThroughput_SCH_40_115 28558.05084445
scalar SlicingScenario.node[17].appl meanTxThroughput_SCH_40_115 0
scalar SlicingScenario.node[17].appl rxTimeOfService_SCH_40_115 30.878858112663
scalar SlicingScenario.node[17].appl txTimeOfService_SCH_40_115 0
scalar SlicingScenario.node[17].nic.phy80211p busyTime 0.39134498969072
scalar SlicingScenario.node[17].nic.phy80211p ncollisions 0
scalar SlicingScenario.node[17].nic.phy80211p UnderSensitivityPackets 1499
scalar SlicingScenario.node[17].nic.mac1609_4 ReceivedUnicastPackets_CCH 0
scalar SlicingScenario.node[17].nic.mac1609_4 ReceivedBroadcasts_CCH 304
scalar SlicingScenario.node[17].nic.mac1609_4 SentPackets_CCH 0
scalar SlicingScenario.node[17].nic.mac1609_4 SentAcknowledgements_CCH 0
scalar SlicingScenario.node[17].nic.mac1609_4 SNIRLostPackets_CCH 0
scalar SlicingScenario.node[17].nic.mac1609_4 RXTXLostPackets_CCH 0
scalar SlicingScenario.node[17].nic.mac1609_4 TotalLostPackets_CCH 0
scalar SlicingScenario.node[17].nic.mac1609_4 DroppedPacketsInMac_CCH 0
scalar SlicingScenario.node[17].nic.mac1609_4 TooLittleTime_CCH 0
scalar SlicingScenario.node[17].nic.mac1609_4 TimesIntoBackoff_CCH 0
scalar SlicingScenario.node[17].nic.mac1609_4 SlotsBackoff_CCH 0
scalar SlicingScenario.node[17].nic.mac1609_4 NumInternalContention_CCH 0
scalar SlicingScenario.node[17].nic.mac1609_4 RemainingPacketsInEDCA_CCH 0
scalar SlicingScenario.node[17].nic.mac1609_4 totalBusyTime_CCH 1.139954446825
scalar SlicingScenario.node[17].nic.mac1609_4 ReceivedUnicastPackets_SCH 0
scalar SlicingScenario.node[17].nic.mac1609_4 ReceivedBroadcasts_SCH 18873
scalar SlicingScenario.node[17].nic.mac1609_4 SentPackets_SCH 0
scalar SlicingScenario.node[17].nic.mac1609_4 SentAcknowledgements_SCH 0
scalar SlicingScenario.node[17].nic.mac1609_4 SNIRLostPackets_SCH 0
scalar SlicingScenario.node[17].nic.mac1609_4 RXTXLostPackets_SCH 0
scalar SlicingScenario.node[17].nic.mac1609_4 TotalLostPackets_SCH 0
scalar SlicingScenario.node[17].nic.mac1609_4 DroppedPacketsInMac_SCH 0
scalar SlicingScenario.node[17].nic.mac1609_4 TooLittleTime_SCH 0
scalar SlicingScenario.node[17].nic.mac1609_4 TimesIntoBackoff_SCH 0
scalar SlicingScenario.node[17].nic.mac1609_4 SlotsBackoff_SCH 0
scalar SlicingScenario.node[17].nic.mac1609_4 NumInternalContention_SCH 0
scalar SlicingScenario.node[17].nic.mac1609_4 RemainingPacketsInEDCA_SCH 0
scalar SlicingScenario.node[17].nic.mac1609_4 totalBusyTime_SCH 37.375344
scalar SlicingScenario.node[17].veinsmobility startTime 7
scalar SlicingScenario.node[17].veinsmobility totalTime 96
[...]
scalar SlicingScenario.rsu[0].appl meanRxPacketSize_SCH_41_1843 0
scalar SlicingScenario.rsu[0].appl meanTxPacketSize_SCH_41_1843 0
scalar SlicingScenario.rsu[0].appl meanRxThroughput_SCH_41_1843 0
scalar SlicingScenario.rsu[0].appl meanTxThroughput_SCH_41_1843 0
scalar SlicingScenario.rsu[0].appl rxTimeOfService_SCH_41_1843 0
scalar SlicingScenario.rsu[0].appl txTimeOfService_SCH_41_1843 0
scalar SlicingScenario.rsu[0].appl txPackets_SCH_41_1849 0
scalar SlicingScenario.rsu[0].appl rxPackets_SCH_41_1849 0
scalar SlicingScenario.rsu[0].appl rxNeighborPackets_SCH_41_1849 0
scalar SlicingScenario.rsu[0].appl meanDelay_SCH_41_1849 0
scalar SlicingScenario.rsu[0].appl meanJitter_SCH_41_1849 0
scalar SlicingScenario.rsu[0].appl meanRxPacketSize_SCH_41_1849 0
scalar SlicingScenario.rsu[0].appl meanTxPacketSize_SCH_41_1849 0
scalar SlicingScenario.rsu[0].appl meanRxThroughput_SCH_41_1849 0
scalar SlicingScenario.rsu[0].appl meanTxThroughput_SCH_41_1849 0
scalar SlicingScenario.rsu[0].appl rxTimeOfService_SCH_41_1849 0
scalar SlicingScenario.rsu[0].appl txTimeOfService_SCH_41_1849 0
scalar SlicingScenario.rsu[0].appl txPackets_SCH_41_1861 0
scalar SlicingScenario.rsu[0].appl rxPackets_SCH_41_1861 0
scalar SlicingScenario.rsu[0].appl rxNeighborPackets_SCH_41_1861 0
scalar SlicingScenario.rsu[0].appl meanDelay_SCH_41_1861 0
scalar SlicingScenario.rsu[0].appl meanJitter_SCH_41_1861 0
scalar SlicingScenario.rsu[0].appl meanRxPacketSize_SCH_41_1861 0
scalar SlicingScenario.rsu[0].appl meanTxPacketSize_SCH_41_1861 0
scalar SlicingScenario.rsu[0].appl meanRxThroughput_SCH_41_1861 0
scalar SlicingScenario.rsu[0].appl meanTxThroughput_SCH_41_1861 0
scalar SlicingScenario.rsu[0].appl rxTimeOfService_SCH_41_1861 0
scalar SlicingScenario.rsu[0].appl txTimeOfService_SCH_41_1861 0
scalar SlicingScenario.rsu[0].appl txPackets_SCH_41_1867 0
scalar SlicingScenario.rsu[0].appl rxPackets_SCH_41_1867 0
scalar SlicingScenario.rsu[0].appl rxNeighborPackets_SCH_41_1867 0
scalar SlicingScenario.rsu[0].appl meanDelay_SCH_41_1867 0
scalar SlicingScenario.rsu[0].appl meanJitter_SCH_41_1867 0
scalar SlicingScenario.rsu[0].appl meanRxPacketSize_SCH_41_1867 0
scalar SlicingScenario.rsu[0].appl meanTxPacketSize_SCH_41_1867 0
scalar SlicingScenario.rsu[0].appl meanRxThroughput_SCH_41_1867 0
scalar SlicingScenario.rsu[0].appl meanTxThroughput_SCH_41_1867 0
scalar SlicingScenario.rsu[0].appl rxTimeOfService_SCH_41_1867 0
scalar SlicingScenario.rsu[0].appl txTimeOfService_SCH_41_1867 0
scalar SlicingScenario.rsu[0].appl txPackets_SCH_41_1879 0
scalar SlicingScenario.rsu[0].appl rxPackets_SCH_41_1879 0
scalar SlicingScenario.rsu[0].appl rxNeighborPackets_SCH_41_1879 0
scalar SlicingScenario.rsu[0].appl meanDelay_SCH_41_1879 0
scalar SlicingScenario.rsu[0].appl meanJitter_SCH_41_1879 0
scalar SlicingScenario.rsu[0].appl meanRxPacketSize_SCH_41_1879 0
scalar SlicingScenario.rsu[0].appl meanTxPacketSize_SCH_41_1879 0
scalar SlicingScenario.rsu[0].appl meanRxThroughput_SCH_41_1879 0
scalar SlicingScenario.rsu[0].appl meanTxThroughput_SCH_41_1879 0
scalar SlicingScenario.rsu[0].appl rxTimeOfService_SCH_41_1879 0
scalar SlicingScenario.rsu[0].appl txTimeOfService_SCH_41_1879 0
scalar SlicingScenario.rsu[0].appl txPackets_SCH_41_1903 0
scalar SlicingScenario.rsu[0].appl rxPackets_SCH_41_1903 0
scalar SlicingScenario.rsu[0].appl rxNeighborPackets_SCH_41_1903 0
scalar SlicingScenario.rsu[0].appl meanDelay_SCH_41_1903 0
scalar SlicingScenario.rsu[0].appl meanJitter_SCH_41_1903 0
scalar SlicingScenario.rsu[0].appl meanRxPacketSize_SCH_41_1903 0
scalar SlicingScenario.rsu[0].appl meanTxPacketSize_SCH_41_1903 0
scalar SlicingScenario.rsu[0].appl meanRxThroughput_SCH_41_1903 0
scalar SlicingScenario.rsu[0].appl meanTxThroughput_SCH_41_1903 0
scalar SlicingScenario.rsu[0].appl rxTimeOfService_SCH_41_1903 0
scalar SlicingScenario.rsu[0].appl txTimeOfService_SCH_41_1903 0
scalar SlicingScenario.rsu[0].appl txPackets_SCH_41_1933 0
scalar SlicingScenario.rsu[0].appl rxPackets_SCH_41_1933 0
scalar SlicingScenario.rsu[0].appl rxNeighborPackets_SCH_41_1933 0
scalar SlicingScenario.rsu[0].appl meanDelay_SCH_41_1933 0
scalar SlicingScenario.rsu[0].appl meanJitter_SCH_41_1933 0
scalar SlicingScenario.rsu[0].appl meanRxPacketSize_SCH_41_1933 0
scalar SlicingScenario.rsu[0].appl meanTxPacketSize_SCH_41_1933 0
scalar SlicingScenario.rsu[0].appl meanRxThroughput_SCH_41_1933 0
scalar SlicingScenario.rsu[0].appl meanTxThroughput_SCH_41_1933 0
scalar SlicingScenario.rsu[0].appl rxTimeOfService_SCH_41_1933 0
scalar SlicingScenario.rsu[0].appl txTimeOfService_SCH_41_1933 0
scalar SlicingScenario.rsu[0].appl txPackets_SCH_41_1939 0
scalar SlicingScenario.rsu[0].appl rxPackets_SCH_41_1939 0
scalar SlicingScenario.rsu[0].appl rxNeighborPackets_SCH_41_1939 0
scalar SlicingScenario.rsu[0].appl meanDelay_SCH_41_1939 0
scalar SlicingScenario.rsu[0].appl meanJitter_SCH_41_1939 0
scalar SlicingScenario.rsu[0].appl meanRxPacketSize_SCH_41_1939 0
scalar SlicingScenario.rsu[0].appl meanTxPacketSize_SCH_41_1939 0
scalar SlicingScenario.rsu[0].appl meanRxThroughput_SCH_41_1939 0
scalar SlicingScenario.rsu[0].appl meanTxThroughput_SCH_41_1939 0
scalar SlicingScenario.rsu[0].appl rxTimeOfService_SCH_41_1939 0
scalar SlicingScenario.rsu[0].appl txTimeOfService_SCH_41_1939 0
scalar SlicingScenario.rsu[0].appl txPackets_SCH_41_1945 0
scalar SlicingScenario.rsu[0].appl rxPackets_SCH_41_1945 0
scalar SlicingScenario.rsu[0].appl rxNeighborPackets_SCH_41_1945 0
scalar SlicingScenario.rsu[0].appl meanDelay_SCH_41_1945 0
scalar SlicingScenario.rsu[0].appl meanJitter_SCH_41_1945 0
scalar SlicingScenario.rsu[0].appl meanRxPacketSize_SCH_41_1945 0
scalar SlicingScenario.rsu[0].appl meanTxPacketSize_SCH_41_1945 0
scalar SlicingScenario.rsu[0].appl meanRxThroughput_SCH_41_1945 0
scalar SlicingScenario.rsu[0].appl meanTxThroughput_SCH_41_1945 0
scalar SlicingScenario.rsu[0].appl rxTimeOfService_SCH_41_1945 0
scalar SlicingScenario.rsu[0].appl txTimeOfService_SCH_41_1945 0
scalar SlicingScenario.rsu[0].appl txPackets_SCH_41_1963 0
scalar SlicingScenario.rsu[0].appl rxPackets_SCH_41_1963 0
scalar SlicingScenario.rsu[0].appl rxNeighborPackets_SCH_41_1963 0
scalar SlicingScenario.rsu[0].appl meanDelay_SCH_41_1963 0
scalar SlicingScenario.rsu[0].appl meanJitter_SCH_41_1963 0
scalar SlicingScenario.rsu[0].appl meanRxPacketSize_SCH_41_1963 0
scalar SlicingScenario.rsu[0].appl meanTxPacketSize_SCH_41_1963 0
scalar SlicingScenario.rsu[0].appl meanRxThroughput_SCH_41_1963 0
scalar SlicingScenario.rsu[0].appl meanTxThroughput_SCH_41_1963 0
scalar SlicingScenario.rsu[0].appl rxTimeOfService_SCH_41_1963 0
scalar SlicingScenario.rsu[0].appl txTimeOfService_SCH_41_1963 0
scalar SlicingScenario.rsu[0].appl txPackets_SCH_41_1993 0
scalar SlicingScenario.rsu[0].appl rxPackets_SCH_41_1993 0
scalar SlicingScenario.rsu[0].appl rxNeighborPackets_SCH_41_1993 0
scalar SlicingScenario.rsu[0].appl meanDelay_SCH_41_1993 0
scalar SlicingScenario.rsu[0].appl meanJitter_SCH_41_1993 0
scalar SlicingScenario.rsu[0].appl meanRxPacketSize_SCH_41_1993 0
scalar SlicingScenario.rsu[0].appl meanTxPacketSize_SCH_41_1993 0
scalar SlicingScenario.rsu[0].appl meanRxThroughput_SCH_41_1993 0
scalar SlicingScenario.rsu[0].appl meanTxThroughput_SCH_41_1993 0
scalar SlicingScenario.rsu[0].appl rxTimeOfService_SCH_41_1993 0
scalar SlicingScenario.rsu[0].appl txTimeOfService_SCH_41_1993 0
scalar SlicingScenario.rsu[0].appl txPackets_SCH_41_2005 0
scalar SlicingScenario.rsu[0].appl rxPackets_SCH_41_2005 0
scalar SlicingScenario.rsu[0].appl rxNeighborPackets_SCH_41_2005 0
scalar SlicingScenario.rsu[0].appl meanDelay_SCH_41_2005 0
scalar SlicingScenario.rsu[0].appl meanJitter_SCH_41_2005 0
scalar SlicingScenario.rsu[0].appl meanRxPacketSize_SCH_41_2005 0
scalar SlicingScenario.rsu[0].appl meanTxPacketSize_SCH_41_2005 0
scalar SlicingScenario.rsu[0].appl meanRxThroughput_SCH_41_2005 0
scalar SlicingScenario.rsu[0].appl meanTxThroughput_SCH_41_2005 0
scalar SlicingScenario.rsu[0].appl rxTimeOfService_SCH_41_2005 0
scalar SlicingScenario.rsu[0].appl txTimeOfService_SCH_41_2005 0
scalar SlicingScenario.rsu[0].appl txPackets_SCH_41_2011 0
scalar SlicingScenario.rsu[0].appl rxPackets_SCH_41_2011 0
scalar SlicingScenario.rsu[0].appl rxNeighborPackets_SCH_41_2011 0
scalar SlicingScenario.rsu[0].appl meanDelay_SCH_41_2011 0
scalar SlicingScenario.rsu[0].appl meanJitter_SCH_41_2011 0
scalar SlicingScenario.rsu[0].appl meanRxPacketSize_SCH_41_2011 0
scalar SlicingScenario.rsu[0].appl meanTxPacketSize_SCH_41_2011 0
scalar SlicingScenario.rsu[0].appl meanRxThroughput_SCH_41_2011 0
scalar SlicingScenario.rsu[0].appl meanTxThroughput_SCH_41_2011 0
scalar SlicingScenario.rsu[0].appl rxTimeOfService_SCH_41_2011 0
scalar SlicingScenario.rsu[0].appl txTimeOfService_SCH_41_2011 0
scalar SlicingScenario.rsu[0].appl txPackets_SCH_41_2017 0
scalar SlicingScenario.rsu[0].appl rxPackets_SCH_41_2017 0
scalar SlicingScenario.rsu[0].appl rxNeighborPackets_SCH_41_2017 0
scalar SlicingScenario.rsu[0].appl meanDelay_SCH_41_2017 0
scalar SlicingScenario.rsu[0].appl meanJitter_SCH_41_2017 0
scalar SlicingScenario.rsu[0].appl meanRxPacketSize_SCH_41_2017 0
scalar SlicingScenario.rsu[0].appl meanTxPacketSize_SCH_41_2017 0
scalar SlicingScenario.rsu[0].appl meanRxThroughput_SCH_41_2017 0
scalar SlicingScenario.rsu[0].appl meanTxThroughput_SCH_41_2017 0
scalar SlicingScenario.rsu[0].appl rxTimeOfService_SCH_41_2017 0
scalar SlicingScenario.rsu[0].appl txTimeOfService_SCH_41_2017 0
scalar SlicingScenario.rsu[0].appl txPackets_SCH_41_2029 0
scalar SlicingScenario.rsu[0].appl rxPackets_SCH_41_2029 0
scalar SlicingScenario.rsu[0].appl rxNeighborPackets_SCH_41_2029 0
scalar SlicingScenario.rsu[0].appl meanDelay_SCH_41_2029 0
scalar SlicingScenario.rsu[0].appl meanJitter_SCH_41_2029 0
scalar SlicingScenario.rsu[0].appl meanRxPacketSize_SCH_41_2029 0
scalar SlicingScenario.rsu[0].appl meanTxPacketSize_SCH_41_2029 0
scalar SlicingScenario.rsu[0].appl meanRxThroughput_SCH_41_2029 0
scalar SlicingScenario.rsu[0].appl meanTxThroughput_SCH_41_2029 0
scalar SlicingScenario.rsu[0].appl rxTimeOfService_SCH_41_2029 0
scalar SlicingScenario.rsu[0].appl txTimeOfService_SCH_41_2029 0
scalar SlicingScenario.rsu[0].appl txPackets_SCH_41_2041 0
scalar SlicingScenario.rsu[0].appl rxPackets_SCH_41_2041 0
scalar SlicingScenario.rsu[0].appl rxNeighborPackets_SCH_41_2041 0
scalar SlicingScenario.rsu[0].appl meanDelay_SCH_41_2041 0
scalar SlicingScenario.rsu[0].appl meanJitter_SCH_41_2041 0
scalar SlicingScenario.rsu[0].appl meanRxPacketSize_SCH_41_2041 0
scalar SlicingScenario.rsu[0].appl meanTxPacketSize_SCH_41_2041 0
scalar SlicingScenario.rsu[0].appl meanRxThroughput_SCH_41_2041 0
scalar SlicingScenario.rsu[0].appl meanTxThroughput_SCH_41_2041 0
scalar SlicingScenario.rsu[0].appl rxTimeOfService_SCH_41_2041 0
scalar SlicingScenario.rsu[0].appl txTimeOfService_SCH_41_2041 0
scalar SlicingScenario.rsu[0].appl txPackets_SCH_41_2047 0
scalar SlicingScenario.rsu[0].appl rxPackets_SCH_41_2047 0
scalar SlicingScenario.rsu[0].appl rxNeighborPackets_SCH_41_2047 0
scalar SlicingScenario.rsu[0].appl meanDelay_SCH_41_2047 0
scalar SlicingScenario.rsu[0].appl meanJitter_SCH_41_2047 0
scalar SlicingScenario.rsu[0].appl meanRxPacketSize_SCH_41_2047 0
scalar SlicingScenario.rsu[0].appl meanTxPacketSize_SCH_41_2047 0
scalar SlicingScenario.rsu[0].appl meanRxThroughput_SCH_41_2047 0
scalar SlicingScenario.rsu[0].appl meanTxThroughput_SCH_41_2047 0
scalar SlicingScenario.rsu[0].appl rxTimeOfService_SCH_41_2047 0
scalar SlicingScenario.rsu[0].appl txTimeOfService_SCH_41_2047 0
scalar SlicingScenario.rsu[0].appl txPackets_SCH_41_2059 0
scalar SlicingScenario.rsu[0].appl rxPackets_SCH_41_2059 0
scalar SlicingScenario.rsu[0].appl rxNeighborPackets_SCH_41_2059 0
scalar SlicingScenario.rsu[0].appl meanDelay_SCH_41_2059 0
scalar SlicingScenario.rsu[0].appl meanJitter_SCH_41_2059 0
scalar SlicingScenario.rsu[0].appl meanRxPacketSize_SCH_41_2059 0
scalar SlicingScenario.rsu[0].appl meanTxPacketSize_SCH_41_2059 0
scalar SlicingScenario.rsu[0].appl meanRxThroughput_SCH_41_2059 0
scalar SlicingScenario.rsu[0].appl meanTxThroughput_SCH_41_2059 0
scalar SlicingScenario.rsu[0].appl rxTimeOfService_SCH_41_2059 0
scalar SlicingScenario.rsu[0].appl txTimeOfService_SCH_41_2059 0
scalar SlicingScenario.rsu[0].appl txPackets_SCH_41_2071 0
scalar SlicingScenario.rsu[0].appl rxPackets_SCH_41_2071 0
scalar SlicingScenario.rsu[0].appl rxNeighborPackets_SCH_41_2071 0
scalar SlicingScenario.rsu[0].appl meanDelay_SCH_41_2071 0
scalar SlicingScenario.rsu[0].appl meanJitter_SCH_41_2071 0
scalar SlicingScenario.rsu[0].appl meanRxPacketSize_SCH_41_2071 0
scalar SlicingScenario.rsu[0].appl meanTxPacketSize_SCH_41_2071 0
scalar SlicingScenario.rsu[0].appl meanRxThroughput_SCH_41_2071 0
scalar SlicingScenario.rsu[0].appl meanTxThroughput_SCH_41_2071 0
scalar SlicingScenario.rsu[0].appl rxTimeOfService_SCH_41_2071 0
scalar SlicingScenario.rsu[0].appl txTimeOfService_SCH_41_2071 0
scalar SlicingScenario.rsu[0].appl txPackets_SCH_41_2077 0
scalar SlicingScenario.rsu[0].appl rxPackets_SCH_41_2077 0
scalar SlicingScenario.rsu[0].appl rxNeighborPackets_SCH_41_2077 0
scalar SlicingScenario.rsu[0].appl meanDelay_SCH_41_2077 0
scalar SlicingScenario.rsu[0].appl meanJitter_SCH_41_2077 0
scalar SlicingScenario.rsu[0].appl meanRxPacketSize_SCH_41_2077 0
scalar SlicingScenario.rsu[0].appl meanTxPacketSize_SCH_41_2077 0
scalar SlicingScenario.rsu[0].appl meanRxThroughput_SCH_41_2077 0
scalar SlicingScenario.rsu[0].appl meanTxThroughput_SCH_41_2077 0
scalar SlicingScenario.rsu[0].appl rxTimeOfService_SCH_41_2077 0
scalar SlicingScenario.rsu[0].appl txTimeOfService_SCH_41_2077 0
scalar SlicingScenario.rsu[0].appl txPackets_SCH_41_2089 0
scalar SlicingScenario.rsu[0].appl rxPackets_SCH_41_2089 0
scalar SlicingScenario.rsu[0].appl rxNeighborPackets_SCH_41_2089 0
scalar SlicingScenario.rsu[0].appl meanDelay_SCH_41_2089 0
scalar SlicingScenario.rsu[0].appl meanJitter_SCH_41_2089 0
scalar SlicingScenario.rsu[0].appl meanRxPacketSize_SCH_41_2089 0
scalar SlicingScenario.rsu[0].appl meanTxPacketSize_SCH_41_2089 0
scalar SlicingScenario.rsu[0].appl meanRxThroughput_SCH_41_2089 0
scalar SlicingScenario.rsu[0].appl meanTxThroughput_SCH_41_2089 0
scalar SlicingScenario.rsu[0].appl rxTimeOfService_SCH_41_2089 0
scalar SlicingScenario.rsu[0].appl txTimeOfService_SCH_41_2089 0
scalar SlicingScenario.rsu[0].appl txPackets_SCH_41_2119 0
scalar SlicingScenario.rsu[0].appl rxPackets_SCH_41_2119 0
scalar SlicingScenario.rsu[0].appl rxNeighborPackets_SCH_41_2119 0
scalar SlicingScenario.rsu[0].appl meanDelay_SCH_41_2119 0
scalar SlicingScenario.rsu[0].appl meanJitter_SCH_41_2119 0
scalar SlicingScenario.rsu[0].appl meanRxPacketSize_SCH_41_2119 0
scalar SlicingScenario.rsu[0].appl meanTxPacketSize_SCH_41_2119 0
scalar SlicingScenario.rsu[0].appl meanRxThroughput_SCH_41_2119 0
scalar SlicingScenario.rsu[0].appl meanTxThroughput_SCH_41_2119 0
scalar SlicingScenario.rsu[0].appl rxTimeOfService_SCH_41_2119 0
scalar SlicingScenario.rsu[0].appl txTimeOfService_SCH_41_2119 0
scalar SlicingScenario.rsu[0].appl txPackets_SCH_41_2125 0
scalar SlicingScenario.rsu[0].appl rxPackets_SCH_41_2125 0
scalar SlicingScenario.rsu[0].appl rxNeighborPackets_SCH_41_2125 0
scalar SlicingScenario.rsu[0].appl meanDelay_SCH_41_2125 0
scalar SlicingScenario.rsu[0].appl meanJitter_SCH_41_2125 0
scalar SlicingScenario.rsu[0].appl meanRxPacketSize_SCH_41_2125 0
scalar SlicingScenario.rsu[0].appl meanTxPacketSize_SCH_41_2125 0
scalar SlicingScenario.rsu[0].appl meanRxThroughput_SCH_41_2125 0
scalar SlicingScenario.rsu[0].appl meanTxThroughput_SCH_41_2125 0
scalar SlicingScenario.rsu[0].appl rxTimeOfService_SCH_41_2125 0
scalar SlicingScenario.rsu[0].appl txTimeOfService_SCH_41_2125 0
scalar SlicingScenario.rsu[0].appl txPackets_SCH_41_2137 0
scalar SlicingScenario.rsu[0].appl rxPackets_SCH_41_2137 0
scalar SlicingScenario.rsu[0].appl rxNeighborPackets_SCH_41_2137 0
scalar SlicingScenario.rsu[0].appl meanDelay_SCH_41_2137 0
scalar SlicingScenario.rsu[0].appl meanJitter_SCH_41_2137 0
scalar SlicingScenario.rsu[0].appl meanRxPacketSize_SCH_41_2137 0
scalar SlicingScenario.rsu[0].appl meanTxPacketSize_SCH_41_2137 0
scalar SlicingScenario.rsu[0].appl meanRxThroughput_SCH_41_2137 0
scalar SlicingScenario.rsu[0].appl meanTxThroughput_SCH_41_2137 0
scalar SlicingScenario.rsu[0].appl rxTimeOfService_SCH_41_2137 0
scalar SlicingScenario.rsu[0].appl txTimeOfService_SCH_41_2137 0
scalar SlicingScenario.rsu[0].appl txPackets_SCH_41_2143 0
scalar SlicingScenario.rsu[0].appl rxPackets_SCH_41_2143 0
scalar SlicingScenario.rsu[0].appl rxNeighborPackets_SCH_41_2143 0
scalar SlicingScenario.rsu[0].appl meanDelay_SCH_41_2143 0
scalar SlicingScenario.rsu[0].appl meanJitter_SCH_41_2143 0
scalar SlicingScenario.rsu[0].appl meanRxPacketSize_SCH_41_2143 0
scalar SlicingScenario.rsu[0].appl meanTxPacketSize_SCH_41_2143 0
scalar SlicingScenario.rsu[0].appl meanRxThroughput_SCH_41_2143 0
scalar SlicingScenario.rsu[0].appl meanTxThroughput_SCH_41_2143 0
scalar SlicingScenario.rsu[0].appl rxTimeOfService_SCH_41_2143 0
scalar SlicingScenario.rsu[0].appl txTimeOfService_SCH_41_2143 0
scalar SlicingScenario.rsu[0].appl txPackets_SCH_41_2149 0
scalar SlicingScenario.rsu[0].appl rxPackets_SCH_41_2149 0
scalar SlicingScenario.rsu[0].appl rxNeighborPackets_SCH_41_2149 0
scalar SlicingScenario.rsu[0].appl meanDelay_SCH_41_2149 0
scalar SlicingScenario.rsu[0].appl meanJitter_SCH_41_2149 0
scalar SlicingScenario.rsu[0].appl meanRxPacketSize_SCH_41_2149 0
scalar SlicingScenario.rsu[0].appl meanTxPacketSize_SCH_41_2149 0
scalar SlicingScenario.rsu[0].appl meanRxThroughput_SCH_41_2149 0
scalar SlicingScenario.rsu[0].appl meanTxThroughput_SCH_41_2149 0
scalar SlicingScenario.rsu[0].appl rxTimeOfService_SCH_41_2149 0
scalar SlicingScenario.rsu[0].appl txTimeOfService_SCH_41_2149 0
scalar SlicingScenario.rsu[0].nic.phy80211p busyTime 0
scalar SlicingScenario.rsu[0].nic.phy80211p ncollisions 0
scalar SlicingScenario.rsu[0].nic.phy80211p UnderSensitivityPackets 0
scalar SlicingScenario.rsu[0].nic.mac1609_4 ReceivedUnicastPackets_CCH 0
scalar SlicingScenario.rsu[0].nic.mac1609_4 ReceivedBroadcasts_CCH 0
scalar SlicingScenario.rsu[0].nic.mac1609_4 SentPackets_CCH 0
scalar SlicingScenario.rsu[0].nic.mac1609_4 SentAcknowledgements_CCH 0
scalar SlicingScenario.rsu[0].nic.mac1609_4 SNIRLostPackets_CCH 0
scalar SlicingScenario.rsu[0].nic.mac1609_4 RXTXLostPackets_CCH 0
scalar SlicingScenario.rsu[0].nic.mac1609_4 TotalLostPackets_CCH 0
scalar SlicingScenario.rsu[0].nic.mac1609_4 DroppedPacketsInMac_CCH 0
scalar SlicingScenario.rsu[0].nic.mac1609_4 TooLittleTime_CCH 0
scalar SlicingScenario.rsu[0].nic.mac1609_4 TimesIntoBackoff_CCH 0
scalar SlicingScenario.rsu[0].nic.mac1609_4 SlotsBackoff_CCH 0
scalar SlicingScenario.rsu[0].nic.mac1609_4 NumInternalContention_CCH 0
scalar SlicingScenario.rsu[0].nic.mac1609_4 RemainingPacketsInEDCA_CCH 0
scalar SlicingScenario.rsu[0].nic.mac1609_4 totalBusyTime_CCH 0
scalar SlicingScenario.rsu[0].nic.mac1609_4 ReceivedUnicastPackets_SCH 0
scalar SlicingScenario.rsu[0].nic.mac1609_4 ReceivedBroadcasts_SCH 0
scalar SlicingScenario.rsu[0].nic.mac1609_4 SentPackets_SCH 62635
scalar SlicingScenario.rsu[0].nic.mac1609_4 SentAcknowledgements_SCH 0
scalar SlicingScenario.rsu[0].nic.mac1609_4 SNIRLostPackets_SCH 0
scalar SlicingScenario.rsu[0].nic.mac1609_4 RXTXLostPackets_SCH 0
scalar SlicingScenario.rsu[0].nic.mac1609_4 TotalLostPackets_SCH 0
scalar SlicingScenario.rsu[0].nic.mac1609_4 DroppedPacketsInMac_SCH 0
scalar SlicingScenario.rsu[0].nic.mac1609_4 TooLittleTime_SCH 45404
scalar SlicingScenario.rsu[0].nic.mac1609_4 TimesIntoBackoff_SCH 65055
scalar SlicingScenario.rsu[0].nic.mac1609_4 SlotsBackoff_SCH 219647
scalar SlicingScenario.rsu[0].nic.mac1609_4 NumInternalContention_SCH 0
scalar SlicingScenario.rsu[0].nic.mac1609_4 RemainingPacketsInEDCA_SCH 528819
scalar SlicingScenario.rsu[0].nic.mac1609_4 totalBusyTime_SCH 124.043227

