version 2
run General-0-20190316-16:18:10-4948
attr configname General
attr datetime 20190316-16:18:10
attr experiment General
attr inifile omnetpp.ini
attr iterationvars "$vehicles=0.1, $msgSizeA=1500B, $serviceMsgInterval=0.04s, $msgSizeB=10000B"
attr iterationvarsf vehicles=0.1,msgSizeA=1500B,serviceMsgInterval=0.04s,msgSizeB=10000B-
attr measurement "$vehicles=0.1, $msgSizeA=1500B, $serviceMsgInterval=0.04s, $msgSizeB=10000B"
attr network com.liborio.slicing.SlicingScenario
attr processid 4948
attr repetition 0
attr replication #0
attr resultdir results
attr runnumber 0
attr seedset 0
itervar msgSizeA 1500B
itervar msgSizeB 10000B
itervar serviceMsgInterval 0.04s
itervar vehicles 0.1
param **.debug false
param **.coreDebug false
param *.playgroundSizeX 1200m
param *.playgroundSizeY 1200m
param *.playgroundSizeZ 50m
param *.annotations.draw true
param *.manager.updateInterval 1s
param *.manager.host "\"localhost\""
param *.manager.port 9999
param *.manager.autoShutdown true
param *.manager.launchConfig "xmldoc(\"highway-\"+string(0.1)+\".launchd.xml\")"
param *.connectionManager.sendDirect true
param *.connectionManager.maxInterfDist 2600m
param *.connectionManager.drawMaxIntfDist false
param *.rsu[*].applType "\"RSUApp\""
param *.rsu[*].appl.headerLength "80 bit"
param *.rsu[*].appl.sendBeacons false
param *.rsu[*].appl.dataOnSch true
param *.rsu[*].appl.beaconInterval 1s
param *.rsu[*].appl.beaconUserPriority 7
param *.rsu[*].appl.dataUserPriority 5
param *.rsu[*].appl.entMsgADataLengthBytes 1500B
param *.rsu[*].appl.entMsgAUserPriority 4
param *.rsu[*].appl.entMsgAInterval 0.04s
param *.rsu[*].appl.entMsgBDataLengthBytes 10000B
param *.rsu[*].appl.entMsgBUserPriority 4
param *.rsu[*].appl.entMsgBInterval 0.04s
param *.rsu[*].nic.mac1609_4.useServiceChannel true
param *.rsu[*].nic.mac1609_4.txPower 20mW
param *.rsu[*].nic.mac1609_4.bitrate 6Mbps
param *.rsu[*].nic.phy80211p.sensitivity -90.00dBm
param *.rsu[0].mobility.x 515.0
param *.rsu[0].mobility.y 25.0
param *.rsu[0].mobility.z 3
param *.node[*].applType "\"VehApp\""
param *.node[*].appl.headerLength "80 bit"
param *.node[*].appl.sendBeacons false
param *.node[*].appl.dataOnSch true
param *.node[*].appl.beaconInterval 1s
param *.node[*].appl.wsaInterval 1s
param *.node[*].appl.entMsgADataLengthBits 1500B
param *.node[*].appl.entMsgAUserPriority 4
param *.node[*].appl.entMsgAInterval 0.04s
param *.node[*].appl.entMsgBDataLengthBits 10000B
param *.node[*].appl.entMsgBUserPriority 4
param *.node[*].appl.entMsgBInterval 0.04s
param *.node[*].nic.mac1609_4.useServiceChannel true
param *.node[*].nic.mac1609_4.txPower 20mW
param *.node[*].nic.mac1609_4.bitrate 6Mbps
param *.node[*].nic.phy80211p.sensitivity -90.00dBm
param *.node[*].veinsmobilityType.debug true
param *.node[*].veinsmobility.x 0
param *.node[*].veinsmobility.y 0
param *.node[*].veinsmobility.z 1.895
param *.**.nic.phy80211p.useThermalNoise true
param *.**.nic.phy80211p.thermalNoise -110dBm
param *.**.nic.phy80211p.decider "xmldoc(\"config.xml\")"
param *.**.nic.phy80211p.analogueModels "xmldoc(\"config.xml\")"
param *.**.nic.phy80211p.usePropagationDelay true
param *.**.nic.phy80211p.antenna "xmldoc(\"antenna.xml\", \"/root/Antenna[@id='monopole']\")"
param *.**.nic.phy80211p.collectCollisionStatistics true
param *.**.nic.phy80211p.allowTxDuringRx false

scalar SlicingScenario.node[1].appl txPackets_CCH_19 0
scalar SlicingScenario.node[1].appl rxPackets_CCH_19 0
scalar SlicingScenario.node[1].appl rxNeighborPackets_CCH_19 0
scalar SlicingScenario.node[1].appl meanDelay_CCH_19 0
scalar SlicingScenario.node[1].appl meanJitter_CCH_19 0
scalar SlicingScenario.node[1].appl meanRxPacketSize_CCH_19 0
scalar SlicingScenario.node[1].appl meanTxPacketSize_CCH_19 0
scalar SlicingScenario.node[1].appl meanRxThroughput_CCH_19 0
scalar SlicingScenario.node[1].appl meanTxThroughput_CCH_19 0
scalar SlicingScenario.node[1].appl rxTimeOfService_CCH_19 0
scalar SlicingScenario.node[1].appl txTimeOfService_CCH_19 0
scalar SlicingScenario.node[1].appl txPackets_SCH_41_19 0
scalar SlicingScenario.node[1].appl rxPackets_SCH_41_19 2282
scalar SlicingScenario.node[1].appl rxNeighborPackets_SCH_41_19 12940
scalar SlicingScenario.node[1].appl meanDelay_SCH_41_19 24.629674871554
scalar SlicingScenario.node[1].appl meanJitter_SCH_41_19 0.031635925956
scalar SlicingScenario.node[1].appl meanRxPacketSize_SCH_41_19 1438
scalar SlicingScenario.node[1].appl meanTxPacketSize_SCH_41_19 0
scalar SlicingScenario.node[1].appl meanRxThroughput_SCH_41_19 308571.18176016
scalar SlicingScenario.node[1].appl meanTxThroughput_SCH_41_19 0
scalar SlicingScenario.node[1].appl rxTimeOfService_SCH_41_19 85.110216223667
scalar SlicingScenario.node[1].appl txTimeOfService_SCH_41_19 0
scalar SlicingScenario.node[1].nic.phy80211p busyTime 0.36336521739135
scalar SlicingScenario.node[1].nic.phy80211p ncollisions 0
scalar SlicingScenario.node[1].nic.phy80211p UnderSensitivityPackets 1496
scalar SlicingScenario.node[1].nic.mac1609_4 ReceivedUnicastPackets_CCH 0
scalar SlicingScenario.node[1].nic.mac1609_4 ReceivedBroadcasts_CCH 0
scalar SlicingScenario.node[1].nic.mac1609_4 SentPackets_CCH 0
scalar SlicingScenario.node[1].nic.mac1609_4 SentAcknowledgements_CCH 0
scalar SlicingScenario.node[1].nic.mac1609_4 SNIRLostPackets_CCH 0
scalar SlicingScenario.node[1].nic.mac1609_4 RXTXLostPackets_CCH 0
scalar SlicingScenario.node[1].nic.mac1609_4 TotalLostPackets_CCH 0
scalar SlicingScenario.node[1].nic.mac1609_4 DroppedPacketsInMac_CCH 0
scalar SlicingScenario.node[1].nic.mac1609_4 TooLittleTime_CCH 0
scalar SlicingScenario.node[1].nic.mac1609_4 TimesIntoBackoff_CCH 0
scalar SlicingScenario.node[1].nic.mac1609_4 SlotsBackoff_CCH 0
scalar SlicingScenario.node[1].nic.mac1609_4 NumInternalContention_CCH 0
scalar SlicingScenario.node[1].nic.mac1609_4 RemainingPacketsInEDCA_CCH 0
scalar SlicingScenario.node[1].nic.mac1609_4 totalBusyTime_CCH 0
scalar SlicingScenario.node[1].nic.mac1609_4 ReceivedUnicastPackets_SCH 0
scalar SlicingScenario.node[1].nic.mac1609_4 ReceivedBroadcasts_SCH 16904
scalar SlicingScenario.node[1].nic.mac1609_4 SentPackets_SCH 0
scalar SlicingScenario.node[1].nic.mac1609_4 SentAcknowledgements_SCH 0
scalar SlicingScenario.node[1].nic.mac1609_4 SNIRLostPackets_SCH 0
scalar SlicingScenario.node[1].nic.mac1609_4 RXTXLostPackets_SCH 0
scalar SlicingScenario.node[1].nic.mac1609_4 TotalLostPackets_SCH 0
scalar SlicingScenario.node[1].nic.mac1609_4 DroppedPacketsInMac_SCH 0
scalar SlicingScenario.node[1].nic.mac1609_4 TooLittleTime_SCH 0
scalar SlicingScenario.node[1].nic.mac1609_4 TimesIntoBackoff_SCH 0
scalar SlicingScenario.node[1].nic.mac1609_4 SlotsBackoff_SCH 0
scalar SlicingScenario.node[1].nic.mac1609_4 NumInternalContention_SCH 0
scalar SlicingScenario.node[1].nic.mac1609_4 RemainingPacketsInEDCA_SCH 0
scalar SlicingScenario.node[1].nic.mac1609_4 totalBusyTime_SCH 33.4296
scalar SlicingScenario.node[1].veinsmobility startTime 1
scalar SlicingScenario.node[1].veinsmobility totalTime 91
scalar SlicingScenario.node[1].veinsmobility stopTime 93
scalar SlicingScenario.node[1].veinsmobility minSpeed 10.612146159182
scalar SlicingScenario.node[1].veinsmobility maxSpeed 11.106821930632
scalar SlicingScenario.node[1].veinsmobility totalDistance 976.03905840449
scalar SlicingScenario.node[1].veinsmobility totalCO2Emission 158.61911584314
scalar SlicingScenario.node[2].appl txPackets_CCH_25 0
scalar SlicingScenario.node[2].appl rxPackets_CCH_25 0
scalar SlicingScenario.node[2].appl rxNeighborPackets_CCH_25 0
scalar SlicingScenario.node[2].appl meanDelay_CCH_25 0
scalar SlicingScenario.node[2].appl meanJitter_CCH_25 0
scalar SlicingScenario.node[2].appl meanRxPacketSize_CCH_25 0
scalar SlicingScenario.node[2].appl meanTxPacketSize_CCH_25 0
scalar SlicingScenario.node[2].appl meanRxThroughput_CCH_25 0
scalar SlicingScenario.node[2].appl meanTxThroughput_CCH_25 0
scalar SlicingScenario.node[2].appl rxTimeOfService_CCH_25 0
scalar SlicingScenario.node[2].appl txTimeOfService_CCH_25 0
scalar SlicingScenario.node[2].appl txPackets_SCH_41_25 0
scalar SlicingScenario.node[2].appl rxPackets_SCH_41_25 2398
scalar SlicingScenario.node[2].appl rxNeighborPackets_SCH_41_25 13013
scalar SlicingScenario.node[2].appl meanDelay_SCH_41_25 24.053794814978
scalar SlicingScenario.node[2].appl meanJitter_SCH_41_25 0.03048193696
scalar SlicingScenario.node[2].appl meanRxPacketSize_SCH_41_25 1438
scalar SlicingScenario.node[2].appl meanTxPacketSize_SCH_41_25 0
scalar SlicingScenario.node[2].appl meanRxThroughput_SCH_41_25 321698.15372213
scalar SlicingScenario.node[2].appl meanTxThroughput_SCH_41_25 0
scalar SlicingScenario.node[2].appl rxTimeOfService_SCH_41_25 85.794213242019
scalar SlicingScenario.node[2].appl txTimeOfService_SCH_41_25 0
scalar SlicingScenario.node[2].nic.phy80211p busyTime 0.3679466086957
scalar SlicingScenario.node[2].nic.phy80211p ncollisions 0
scalar SlicingScenario.node[2].nic.phy80211p UnderSensitivityPackets 1283
scalar SlicingScenario.node[2].nic.mac1609_4 ReceivedUnicastPackets_CCH 0
scalar SlicingScenario.node[2].nic.mac1609_4 ReceivedBroadcasts_CCH 71
scalar SlicingScenario.node[2].nic.mac1609_4 SentPackets_CCH 0
scalar SlicingScenario.node[2].nic.mac1609_4 SentAcknowledgements_CCH 0
scalar SlicingScenario.node[2].nic.mac1609_4 SNIRLostPackets_CCH 0
scalar SlicingScenario.node[2].nic.mac1609_4 RXTXLostPackets_CCH 0
scalar SlicingScenario.node[2].nic.mac1609_4 TotalLostPackets_CCH 0
scalar SlicingScenario.node[2].nic.mac1609_4 DroppedPacketsInMac_CCH 0
scalar SlicingScenario.node[2].nic.mac1609_4 TooLittleTime_CCH 0
scalar SlicingScenario.node[2].nic.mac1609_4 TimesIntoBackoff_CCH 0
scalar SlicingScenario.node[2].nic.mac1609_4 SlotsBackoff_CCH 0
scalar SlicingScenario.node[2].nic.mac1609_4 NumInternalContention_CCH 0
scalar SlicingScenario.node[2].nic.mac1609_4 RemainingPacketsInEDCA_CCH 0
scalar SlicingScenario.node[2].nic.mac1609_4 totalBusyTime_CCH 0.275195873103
scalar SlicingScenario.node[2].nic.mac1609_4 ReceivedUnicastPackets_SCH 0
scalar SlicingScenario.node[2].nic.mac1609_4 ReceivedBroadcasts_SCH 17046
scalar SlicingScenario.node[2].nic.mac1609_4 SentPackets_SCH 0
scalar SlicingScenario.node[2].nic.mac1609_4 SentAcknowledgements_SCH 0
scalar SlicingScenario.node[2].nic.mac1609_4 SNIRLostPackets_SCH 0
scalar SlicingScenario.node[2].nic.mac1609_4 RXTXLostPackets_SCH 0
scalar SlicingScenario.node[2].nic.mac1609_4 TotalLostPackets_SCH 0
scalar SlicingScenario.node[2].nic.mac1609_4 DroppedPacketsInMac_SCH 0
scalar SlicingScenario.node[2].nic.mac1609_4 TooLittleTime_SCH 0
scalar SlicingScenario.node[2].nic.mac1609_4 TimesIntoBackoff_SCH 0
scalar SlicingScenario.node[2].nic.mac1609_4 SlotsBackoff_SCH 0
scalar SlicingScenario.node[2].nic.mac1609_4 NumInternalContention_SCH 0
scalar SlicingScenario.node[2].nic.mac1609_4 RemainingPacketsInEDCA_SCH 0
scalar SlicingScenario.node[2].nic.mac1609_4 totalBusyTime_SCH 33.712608
scalar SlicingScenario.node[2].veinsmobility startTime 1
scalar SlicingScenario.node[2].veinsmobility totalTime 91
scalar SlicingScenario.node[2].veinsmobility stopTime 93
scalar SlicingScenario.node[2].veinsmobility minSpeed 10.615909312051
scalar SlicingScenario.node[2].veinsmobility maxSpeed 11.107107682168
scalar SlicingScenario.node[2].veinsmobility totalDistance 980.68579318242
scalar SlicingScenario.node[2].veinsmobility totalCO2Emission 156.55219101406
scalar SlicingScenario.node[0].appl txPackets_CCH_13 0
scalar SlicingScenario.node[0].appl rxPackets_CCH_13 0
scalar SlicingScenario.node[0].appl rxNeighborPackets_CCH_13 0
scalar SlicingScenario.node[0].appl meanDelay_CCH_13 0
scalar SlicingScenario.node[0].appl meanJitter_CCH_13 0
scalar SlicingScenario.node[0].appl meanRxPacketSize_CCH_13 0
scalar SlicingScenario.node[0].appl meanTxPacketSize_CCH_13 0
scalar SlicingScenario.node[0].appl meanRxThroughput_CCH_13 0
scalar SlicingScenario.node[0].appl meanTxThroughput_CCH_13 0
scalar SlicingScenario.node[0].appl rxTimeOfService_CCH_13 0
scalar SlicingScenario.node[0].appl txTimeOfService_CCH_13 0
scalar SlicingScenario.node[0].appl txPackets_SCH_40_13 0
scalar SlicingScenario.node[0].appl rxPackets_SCH_40_13 311
scalar SlicingScenario.node[0].appl rxNeighborPackets_SCH_40_13 1349
scalar SlicingScenario.node[0].appl meanDelay_SCH_40_13 25.771546323005
scalar SlicingScenario.node[0].appl meanJitter_SCH_40_13 0.230354878322
scalar SlicingScenario.node[0].appl meanRxPacketSize_SCH_40_13 1510
scalar SlicingScenario.node[0].appl meanTxPacketSize_SCH_40_13 0
scalar SlicingScenario.node[0].appl meanRxThroughput_SCH_40_13 44421.651157662
scalar SlicingScenario.node[0].appl meanTxThroughput_SCH_40_13 0
scalar SlicingScenario.node[0].appl rxTimeOfService_SCH_40_13 84.573173263327
scalar SlicingScenario.node[0].appl txTimeOfService_SCH_40_13 0
scalar SlicingScenario.node[0].nic.phy80211p busyTime 0.3587613913044
scalar SlicingScenario.node[0].nic.phy80211p ncollisions 0
scalar SlicingScenario.node[0].nic.phy80211p UnderSensitivityPackets 1710
scalar SlicingScenario.node[0].nic.mac1609_4 ReceivedUnicastPackets_CCH 0
scalar SlicingScenario.node[0].nic.mac1609_4 ReceivedBroadcasts_CCH 0
scalar SlicingScenario.node[0].nic.mac1609_4 SentPackets_CCH 0
scalar SlicingScenario.node[0].nic.mac1609_4 SentAcknowledgements_CCH 0
scalar SlicingScenario.node[0].nic.mac1609_4 SNIRLostPackets_CCH 0
scalar SlicingScenario.node[0].nic.mac1609_4 RXTXLostPackets_CCH 0
scalar SlicingScenario.node[0].nic.mac1609_4 TotalLostPackets_CCH 0
scalar SlicingScenario.node[0].nic.mac1609_4 DroppedPacketsInMac_CCH 0
scalar SlicingScenario.node[0].nic.mac1609_4 TooLittleTime_CCH 0
scalar SlicingScenario.node[0].nic.mac1609_4 TimesIntoBackoff_CCH 0
scalar SlicingScenario.node[0].nic.mac1609_4 SlotsBackoff_CCH 0
scalar SlicingScenario.node[0].nic.mac1609_4 NumInternalContention_CCH 0
scalar SlicingScenario.node[0].nic.mac1609_4 RemainingPacketsInEDCA_CCH 0
scalar SlicingScenario.node[0].nic.mac1609_4 totalBusyTime_CCH 0
scalar SlicingScenario.node[0].nic.mac1609_4 ReceivedUnicastPackets_SCH 0
scalar SlicingScenario.node[0].nic.mac1609_4 ReceivedBroadcasts_SCH 16690
scalar SlicingScenario.node[0].nic.mac1609_4 SentPackets_SCH 0
scalar SlicingScenario.node[0].nic.mac1609_4 SentAcknowledgements_SCH 0
scalar SlicingScenario.node[0].nic.mac1609_4 SNIRLostPackets_SCH 0
scalar SlicingScenario.node[0].nic.mac1609_4 RXTXLostPackets_SCH 0
scalar SlicingScenario.node[0].nic.mac1609_4 TotalLostPackets_SCH 0
scalar SlicingScenario.node[0].nic.mac1609_4 DroppedPacketsInMac_SCH 0
scalar SlicingScenario.node[0].nic.mac1609_4 TooLittleTime_SCH 0
scalar SlicingScenario.node[0].nic.mac1609_4 TimesIntoBackoff_SCH 0
scalar SlicingScenario.node[0].nic.mac1609_4 SlotsBackoff_SCH 0
scalar SlicingScenario.node[0].nic.mac1609_4 NumInternalContention_SCH 0
scalar SlicingScenario.node[0].nic.mac1609_4 RemainingPacketsInEDCA_SCH 0
scalar SlicingScenario.node[0].nic.mac1609_4 totalBusyTime_SCH 33.006048
scalar SlicingScenario.node[0].veinsmobility startTime 1
scalar SlicingScenario.node[0].veinsmobility totalTime 91
scalar SlicingScenario.node[0].veinsmobility stopTime 93
scalar SlicingScenario.node[0].veinsmobility minSpeed 10.629196938956
scalar SlicingScenario.node[0].veinsmobility maxSpeed 11.105681705303
scalar SlicingScenario.node[0].veinsmobility totalDistance 977.17324020842
scalar SlicingScenario.node[0].veinsmobility totalCO2Emission 157.83700011097
scalar SlicingScenario.node[4].appl txPackets_CCH_37 0
scalar SlicingScenario.node[4].appl rxPackets_CCH_37 0
scalar SlicingScenario.node[4].appl rxNeighborPackets_CCH_37 0
scalar SlicingScenario.node[4].appl meanDelay_CCH_37 0
scalar SlicingScenario.node[4].appl meanJitter_CCH_37 0
scalar SlicingScenario.node[4].appl meanRxPacketSize_CCH_37 0
scalar SlicingScenario.node[4].appl meanTxPacketSize_CCH_37 0
scalar SlicingScenario.node[4].appl meanRxThroughput_CCH_37 0
scalar SlicingScenario.node[4].appl meanTxThroughput_CCH_37 0
scalar SlicingScenario.node[4].appl rxTimeOfService_CCH_37 0
scalar SlicingScenario.node[4].appl txTimeOfService_CCH_37 0
scalar SlicingScenario.node[4].appl txPackets_SCH_41_37 0
scalar SlicingScenario.node[4].appl rxPackets_SCH_41_37 1959
scalar SlicingScenario.node[4].appl rxNeighborPackets_SCH_41_37 13651
scalar SlicingScenario.node[4].appl meanDelay_SCH_41_37 29.881933886061
scalar SlicingScenario.node[4].appl meanJitter_SCH_41_37 0.036888602794
scalar SlicingScenario.node[4].appl meanRxPacketSize_SCH_41_37 1438
scalar SlicingScenario.node[4].appl meanTxPacketSize_SCH_41_37 0
scalar SlicingScenario.node[4].appl meanRxThroughput_SCH_41_37 273332.40140035
scalar SlicingScenario.node[4].appl meanTxThroughput_SCH_41_37 0
scalar SlicingScenario.node[4].appl rxTimeOfService_SCH_41_37 82.495598342814
scalar SlicingScenario.node[4].appl txTimeOfService_SCH_41_37 0
scalar SlicingScenario.node[4].nic.phy80211p busyTime 0.37258069565221
scalar SlicingScenario.node[4].nic.phy80211p ncollisions 0
scalar SlicingScenario.node[4].nic.phy80211p UnderSensitivityPackets 1281
scalar SlicingScenario.node[4].nic.mac1609_4 ReceivedUnicastPackets_CCH 0
scalar SlicingScenario.node[4].nic.mac1609_4 ReceivedBroadcasts_CCH 0
scalar SlicingScenario.node[4].nic.mac1609_4 SentPackets_CCH 0
scalar SlicingScenario.node[4].nic.mac1609_4 SentAcknowledgements_CCH 0
scalar SlicingScenario.node[4].nic.mac1609_4 SNIRLostPackets_CCH 0
scalar SlicingScenario.node[4].nic.mac1609_4 RXTXLostPackets_CCH 0
scalar SlicingScenario.node[4].nic.mac1609_4 TotalLostPackets_CCH 0
scalar SlicingScenario.node[4].nic.mac1609_4 DroppedPacketsInMac_CCH 0
scalar SlicingScenario.node[4].nic.mac1609_4 TooLittleTime_CCH 0
scalar SlicingScenario.node[4].nic.mac1609_4 TimesIntoBackoff_CCH 0
scalar SlicingScenario.node[4].nic.mac1609_4 SlotsBackoff_CCH 0
scalar SlicingScenario.node[4].nic.mac1609_4 NumInternalContention_CCH 0
scalar SlicingScenario.node[4].nic.mac1609_4 RemainingPacketsInEDCA_CCH 0
scalar SlicingScenario.node[4].nic.mac1609_4 totalBusyTime_CCH 0
scalar SlicingScenario.node[4].nic.mac1609_4 ReceivedUnicastPackets_SCH 0
scalar SlicingScenario.node[4].nic.mac1609_4 ReceivedBroadcasts_SCH 17332
scalar SlicingScenario.node[4].nic.mac1609_4 SentPackets_SCH 0
scalar SlicingScenario.node[4].nic.mac1609_4 SentAcknowledgements_SCH 0
scalar SlicingScenario.node[4].nic.mac1609_4 SNIRLostPackets_SCH 0
scalar SlicingScenario.node[4].nic.mac1609_4 RXTXLostPackets_SCH 0
scalar SlicingScenario.node[4].nic.mac1609_4 TotalLostPackets_SCH 0
scalar SlicingScenario.node[4].nic.mac1609_4 DroppedPacketsInMac_SCH 0
scalar SlicingScenario.node[4].nic.mac1609_4 TooLittleTime_SCH 0
scalar SlicingScenario.node[4].nic.mac1609_4 TimesIntoBackoff_SCH 0
scalar SlicingScenario.node[4].nic.mac1609_4 SlotsBackoff_SCH 0
scalar SlicingScenario.node[4].nic.mac1609_4 NumInternalContention_SCH 0
scalar SlicingScenario.node[4].nic.mac1609_4 RemainingPacketsInEDCA_SCH 0
scalar SlicingScenario.node[4].nic.mac1609_4 totalBusyTime_SCH 34.27536
scalar SlicingScenario.node[4].veinsmobility startTime 2
scalar SlicingScenario.node[4].veinsmobility totalTime 91
scalar SlicingScenario.node[4].veinsmobility stopTime 94
scalar SlicingScenario.node[4].veinsmobility minSpeed 10.6125721048
scalar SlicingScenario.node[4].veinsmobility maxSpeed 11.101479641874
scalar SlicingScenario.node[4].veinsmobility totalDistance 978.88967403566
scalar SlicingScenario.node[4].veinsmobility totalCO2Emission 158.33461372683
scalar SlicingScenario.node[3].appl txPackets_CCH_31 0
scalar SlicingScenario.node[3].appl rxPackets_CCH_31 0
scalar SlicingScenario.node[3].appl rxNeighborPackets_CCH_31 0
scalar SlicingScenario.node[3].appl meanDelay_CCH_31 0
scalar SlicingScenario.node[3].appl meanJitter_CCH_31 0
scalar SlicingScenario.node[3].appl meanRxPacketSize_CCH_31 0
scalar SlicingScenario.node[3].appl meanTxPacketSize_CCH_31 0
scalar SlicingScenario.node[3].appl meanRxThroughput_CCH_31 0
scalar SlicingScenario.node[3].appl meanTxThroughput_CCH_31 0
scalar SlicingScenario.node[3].appl rxTimeOfService_CCH_31 0
scalar SlicingScenario.node[3].appl txTimeOfService_CCH_31 0
scalar SlicingScenario.node[3].appl txPackets_SCH_41_31 0
scalar SlicingScenario.node[3].appl rxPackets_SCH_41_31 1991
scalar SlicingScenario.node[3].appl rxNeighborPackets_SCH_41_31 13818
scalar SlicingScenario.node[3].appl meanDelay_SCH_41_31 29.884470408274
scalar SlicingScenario.node[3].appl meanJitter_SCH_41_31 0.036708748367
scalar SlicingScenario.node[3].appl meanRxPacketSize_SCH_41_31 1438
scalar SlicingScenario.node[3].appl meanTxPacketSize_SCH_41_31 0
scalar SlicingScenario.node[3].appl meanRxThroughput_SCH_41_31 273508.83859378
scalar SlicingScenario.node[3].appl meanTxThroughput_SCH_41_31 0
scalar SlicingScenario.node[3].appl rxTimeOfService_SCH_41_31 83.767969319736
scalar SlicingScenario.node[3].appl txTimeOfService_SCH_41_31 0
scalar SlicingScenario.node[3].nic.phy80211p busyTime 0.37309935483874
scalar SlicingScenario.node[3].nic.phy80211p ncollisions 0
scalar SlicingScenario.node[3].nic.phy80211p UnderSensitivityPackets 1282
scalar SlicingScenario.node[3].nic.mac1609_4 ReceivedUnicastPackets_CCH 0
scalar SlicingScenario.node[3].nic.mac1609_4 ReceivedBroadcasts_CCH 0
scalar SlicingScenario.node[3].nic.mac1609_4 SentPackets_CCH 0
scalar SlicingScenario.node[3].nic.mac1609_4 SentAcknowledgements_CCH 0
scalar SlicingScenario.node[3].nic.mac1609_4 SNIRLostPackets_CCH 0
scalar SlicingScenario.node[3].nic.mac1609_4 RXTXLostPackets_CCH 0
scalar SlicingScenario.node[3].nic.mac1609_4 TotalLostPackets_CCH 0
scalar SlicingScenario.node[3].nic.mac1609_4 DroppedPacketsInMac_CCH 0
scalar SlicingScenario.node[3].nic.mac1609_4 TooLittleTime_CCH 0
scalar SlicingScenario.node[3].nic.mac1609_4 TimesIntoBackoff_CCH 0
scalar SlicingScenario.node[3].nic.mac1609_4 SlotsBackoff_CCH 0
scalar SlicingScenario.node[3].nic.mac1609_4 NumInternalContention_CCH 0
scalar SlicingScenario.node[3].nic.mac1609_4 RemainingPacketsInEDCA_CCH 0
scalar SlicingScenario.node[3].nic.mac1609_4 totalBusyTime_CCH 0
scalar SlicingScenario.node[3].nic.mac1609_4 ReceivedUnicastPackets_SCH 0
scalar SlicingScenario.node[3].nic.mac1609_4 ReceivedBroadcasts_SCH 17546
scalar SlicingScenario.node[3].nic.mac1609_4 SentPackets_SCH 0
scalar SlicingScenario.node[3].nic.mac1609_4 SentAcknowledgements_SCH 0
scalar SlicingScenario.node[3].nic.mac1609_4 SNIRLostPackets_SCH 0
scalar SlicingScenario.node[3].nic.mac1609_4 RXTXLostPackets_SCH 0
scalar SlicingScenario.node[3].nic.mac1609_4 TotalLostPackets_SCH 0
scalar SlicingScenario.node[3].nic.mac1609_4 DroppedPacketsInMac_SCH 0
scalar SlicingScenario.node[3].nic.mac1609_4 TooLittleTime_SCH 0
scalar SlicingScenario.node[3].nic.mac1609_4 TimesIntoBackoff_SCH 0
scalar SlicingScenario.node[3].nic.mac1609_4 SlotsBackoff_SCH 0
scalar SlicingScenario.node[3].nic.mac1609_4 NumInternalContention_SCH 0
scalar SlicingScenario.node[3].nic.mac1609_4 RemainingPacketsInEDCA_SCH 0
scalar SlicingScenario.node[3].nic.mac1609_4 totalBusyTime_SCH 34.69824
scalar SlicingScenario.node[3].veinsmobility startTime 2
scalar SlicingScenario.node[3].veinsmobility totalTime 92
scalar SlicingScenario.node[3].veinsmobility stopTime 95
scalar SlicingScenario.node[3].veinsmobility minSpeed 8.1699702141206
scalar SlicingScenario.node[3].veinsmobility maxSpeed 11.096487645307
scalar SlicingScenario.node[3].veinsmobility totalDistance 979.7761558418
scalar SlicingScenario.node[3].veinsmobility totalCO2Emission 166.45661062365
scalar SlicingScenario.node[6].appl txPackets_CCH_49 0
scalar SlicingScenario.node[6].appl rxPackets_CCH_49 0
scalar SlicingScenario.node[6].appl rxNeighborPackets_CCH_49 0
scalar SlicingScenario.node[6].appl meanDelay_CCH_49 0
scalar SlicingScenario.node[6].appl meanJitter_CCH_49 0
scalar SlicingScenario.node[6].appl meanRxPacketSize_CCH_49 0
scalar SlicingScenario.node[6].appl meanTxPacketSize_CCH_49 0
scalar SlicingScenario.node[6].appl meanRxThroughput_CCH_49 0
scalar SlicingScenario.node[6].appl meanTxThroughput_CCH_49 0
scalar SlicingScenario.node[6].appl rxTimeOfService_CCH_49 0
scalar SlicingScenario.node[6].appl txTimeOfService_CCH_49 0
scalar SlicingScenario.node[6].appl txPackets_SCH_40_49 0
scalar SlicingScenario.node[6].appl rxPackets_SCH_40_49 297
scalar SlicingScenario.node[6].appl rxNeighborPackets_SCH_40_49 1440
scalar SlicingScenario.node[6].appl meanDelay_SCH_40_49 28.581764401606
scalar SlicingScenario.node[6].appl meanJitter_SCH_40_49 0.247196690878
scalar SlicingScenario.node[6].appl meanRxPacketSize_SCH_40_49 1510
scalar SlicingScenario.node[6].appl meanTxPacketSize_SCH_40_49 0
scalar SlicingScenario.node[6].appl meanRxThroughput_SCH_40_49 42315.82383158
scalar SlicingScenario.node[6].appl meanTxThroughput_SCH_40_49 0
scalar SlicingScenario.node[6].appl rxTimeOfService_SCH_40_49 84.785304293721
scalar SlicingScenario.node[6].appl txTimeOfService_SCH_40_49 0
scalar SlicingScenario.node[6].nic.phy80211p busyTime 0.37309935483874
scalar SlicingScenario.node[6].nic.phy80211p ncollisions 0
scalar SlicingScenario.node[6].nic.phy80211p UnderSensitivityPackets 1282
scalar SlicingScenario.node[6].nic.mac1609_4 ReceivedUnicastPackets_CCH 0
scalar SlicingScenario.node[6].nic.mac1609_4 ReceivedBroadcasts_CCH 178
scalar SlicingScenario.node[6].nic.mac1609_4 SentPackets_CCH 0
scalar SlicingScenario.node[6].nic.mac1609_4 SentAcknowledgements_CCH 0
scalar SlicingScenario.node[6].nic.mac1609_4 SNIRLostPackets_CCH 0
scalar SlicingScenario.node[6].nic.mac1609_4 RXTXLostPackets_CCH 0
scalar SlicingScenario.node[6].nic.mac1609_4 TotalLostPackets_CCH 0
scalar SlicingScenario.node[6].nic.mac1609_4 DroppedPacketsInMac_CCH 0
scalar SlicingScenario.node[6].nic.mac1609_4 TooLittleTime_CCH 0
scalar SlicingScenario.node[6].nic.mac1609_4 TimesIntoBackoff_CCH 0
scalar SlicingScenario.node[6].nic.mac1609_4 SlotsBackoff_CCH 0
scalar SlicingScenario.node[6].nic.mac1609_4 NumInternalContention_CCH 0
scalar SlicingScenario.node[6].nic.mac1609_4 RemainingPacketsInEDCA_CCH 0
scalar SlicingScenario.node[6].nic.mac1609_4 totalBusyTime_CCH 0.687346126239
scalar SlicingScenario.node[6].nic.mac1609_4 ReceivedUnicastPackets_SCH 0
scalar SlicingScenario.node[6].nic.mac1609_4 ReceivedBroadcasts_SCH 17368
scalar SlicingScenario.node[6].nic.mac1609_4 SentPackets_SCH 0
scalar SlicingScenario.node[6].nic.mac1609_4 SentAcknowledgements_SCH 0
scalar SlicingScenario.node[6].nic.mac1609_4 SNIRLostPackets_SCH 0
scalar SlicingScenario.node[6].nic.mac1609_4 RXTXLostPackets_SCH 0
scalar SlicingScenario.node[6].nic.mac1609_4 TotalLostPackets_SCH 0
scalar SlicingScenario.node[6].nic.mac1609_4 DroppedPacketsInMac_SCH 0
scalar SlicingScenario.node[6].nic.mac1609_4 TooLittleTime_SCH 0
scalar SlicingScenario.node[6].nic.mac1609_4 TimesIntoBackoff_SCH 0
scalar SlicingScenario.node[6].nic.mac1609_4 SlotsBackoff_SCH 0
scalar SlicingScenario.node[6].nic.mac1609_4 NumInternalContention_SCH 0
scalar SlicingScenario.node[6].nic.mac1609_4 RemainingPacketsInEDCA_SCH 0
scalar SlicingScenario.node[6].nic.mac1609_4 totalBusyTime_SCH 34.349664
scalar SlicingScenario.node[6].veinsmobility startTime 2
scalar SlicingScenario.node[6].veinsmobility totalTime 92
scalar SlicingScenario.node[6].veinsmobility stopTime 95
scalar SlicingScenario.node[6].veinsmobility minSpeed 7.9599037974123
scalar SlicingScenario.node[6].veinsmobility maxSpeed 11.105088667609
scalar SlicingScenario.node[6].veinsmobility totalDistance 982.16166516886
scalar SlicingScenario.node[6].veinsmobility totalCO2Emission 166.97297882434
scalar SlicingScenario.node[5].appl txPackets_CCH_43 0
scalar SlicingScenario.node[5].appl rxPackets_CCH_43 0
scalar SlicingScenario.node[5].appl rxNeighborPackets_CCH_43 0
scalar SlicingScenario.node[5].appl meanDelay_CCH_43 0
scalar SlicingScenario.node[5].appl meanJitter_CCH_43 0
scalar SlicingScenario.node[5].appl meanRxPacketSize_CCH_43 0
scalar SlicingScenario.node[5].appl meanTxPacketSize_CCH_43 0
scalar SlicingScenario.node[5].appl meanRxThroughput_CCH_43 0
scalar SlicingScenario.node[5].appl meanTxThroughput_CCH_43 0
scalar SlicingScenario.node[5].appl rxTimeOfService_CCH_43 0
scalar SlicingScenario.node[5].appl txTimeOfService_CCH_43 0
scalar SlicingScenario.node[5].appl txPackets_SCH_40_43 0
scalar SlicingScenario.node[5].appl rxPackets_SCH_40_43 284
scalar SlicingScenario.node[5].appl rxNeighborPackets_SCH_40_43 1453
scalar SlicingScenario.node[5].appl meanDelay_SCH_40_43 29.885560632563
scalar SlicingScenario.node[5].appl meanJitter_SCH_40_43 0.257867522507
scalar SlicingScenario.node[5].appl meanRxPacketSize_SCH_40_43 1510
scalar SlicingScenario.node[5].appl meanTxPacketSize_SCH_40_43 0
scalar SlicingScenario.node[5].appl meanRxThroughput_SCH_40_43 40988.113107735
scalar SlicingScenario.node[5].appl meanTxThroughput_SCH_40_43 0
scalar SlicingScenario.node[5].appl rxTimeOfService_SCH_40_43 83.700364322274
scalar SlicingScenario.node[5].appl txTimeOfService_SCH_40_43 0
scalar SlicingScenario.node[5].nic.phy80211p busyTime 0.37309935483874
scalar SlicingScenario.node[5].nic.phy80211p ncollisions 0
scalar SlicingScenario.node[5].nic.phy80211p UnderSensitivityPackets 1282
scalar SlicingScenario.node[5].nic.mac1609_4 ReceivedUnicastPackets_CCH 0
scalar SlicingScenario.node[5].nic.mac1609_4 ReceivedBroadcasts_CCH 198
scalar SlicingScenario.node[5].nic.mac1609_4 SentPackets_CCH 0
scalar SlicingScenario.node[5].nic.mac1609_4 SentAcknowledgements_CCH 0
scalar SlicingScenario.node[5].nic.mac1609_4 SNIRLostPackets_CCH 0
scalar SlicingScenario.node[5].nic.mac1609_4 RXTXLostPackets_CCH 0
scalar SlicingScenario.node[5].nic.mac1609_4 TotalLostPackets_CCH 0
scalar SlicingScenario.node[5].nic.mac1609_4 DroppedPacketsInMac_CCH 0
scalar SlicingScenario.node[5].nic.mac1609_4 TooLittleTime_CCH 0
scalar SlicingScenario.node[5].nic.mac1609_4 TimesIntoBackoff_CCH 0
scalar SlicingScenario.node[5].nic.mac1609_4 SlotsBackoff_CCH 0
scalar SlicingScenario.node[5].nic.mac1609_4 NumInternalContention_CCH 0
scalar SlicingScenario.node[5].nic.mac1609_4 RemainingPacketsInEDCA_CCH 0
scalar SlicingScenario.node[5].nic.mac1609_4 totalBusyTime_CCH 0.766095602864
scalar SlicingScenario.node[5].nic.mac1609_4 ReceivedUnicastPackets_SCH 0
scalar SlicingScenario.node[5].nic.mac1609_4 ReceivedBroadcasts_SCH 17348
scalar SlicingScenario.node[5].nic.mac1609_4 SentPackets_SCH 0
scalar SlicingScenario.node[5].nic.mac1609_4 SentAcknowledgements_SCH 0
scalar SlicingScenario.node[5].nic.mac1609_4 SNIRLostPackets_SCH 0
scalar SlicingScenario.node[5].nic.mac1609_4 RXTXLostPackets_SCH 0
scalar SlicingScenario.node[5].nic.mac1609_4 TotalLostPackets_SCH 0
scalar SlicingScenario.node[5].nic.mac1609_4 DroppedPacketsInMac_SCH 0
scalar SlicingScenario.node[5].nic.mac1609_4 TooLittleTime_SCH 0
scalar SlicingScenario.node[5].nic.mac1609_4 TimesIntoBackoff_SCH 0
scalar SlicingScenario.node[5].nic.mac1609_4 SlotsBackoff_SCH 0
scalar SlicingScenario.node[5].nic.mac1609_4 NumInternalContention_SCH 0
scalar SlicingScenario.node[5].nic.mac1609_4 RemainingPacketsInEDCA_SCH 0
scalar SlicingScenario.node[5].nic.mac1609_4 totalBusyTime_SCH 34.309056
scalar SlicingScenario.node[5].veinsmobility startTime 2
scalar SlicingScenario.node[5].veinsmobility totalTime 92
scalar SlicingScenario.node[5].veinsmobility stopTime 95
scalar SlicingScenario.node[5].veinsmobility minSpeed 7.9472312140726
scalar SlicingScenario.node[5].veinsmobility maxSpeed 11.108155222042
scalar SlicingScenario.node[5].veinsmobility totalDistance 980.38543621013
scalar SlicingScenario.node[5].veinsmobility totalCO2Emission 167.51021608012
scalar SlicingScenario.node[7].appl txPackets_CCH_55 0
scalar SlicingScenario.node[7].appl rxPackets_CCH_55 0
scalar SlicingScenario.node[7].appl rxNeighborPackets_CCH_55 0
scalar SlicingScenario.node[7].appl meanDelay_CCH_55 0
scalar SlicingScenario.node[7].appl meanJitter_CCH_55 0
scalar SlicingScenario.node[7].appl meanRxPacketSize_CCH_55 0
scalar SlicingScenario.node[7].appl meanTxPacketSize_CCH_55 0
scalar SlicingScenario.node[7].appl meanRxThroughput_CCH_55 0
scalar SlicingScenario.node[7].appl meanTxThroughput_CCH_55 0
scalar SlicingScenario.node[7].appl rxTimeOfService_CCH_55 0
scalar SlicingScenario.node[7].appl txTimeOfService_CCH_55 0
scalar SlicingScenario.node[7].appl txPackets_SCH_41_55 0
scalar SlicingScenario.node[7].appl rxPackets_SCH_41_55 1596
scalar SlicingScenario.node[7].appl rxNeighborPackets_SCH_41_55 14407
scalar SlicingScenario.node[7].appl meanDelay_SCH_41_55 36.844706016139
scalar SlicingScenario.node[7].appl meanJitter_SCH_41_55 0.046376492053
scalar SlicingScenario.node[7].appl meanRxPacketSize_SCH_41_55 1438
scalar SlicingScenario.node[7].appl meanTxPacketSize_SCH_41_55 0
scalar SlicingScenario.node[7].appl meanRxThroughput_SCH_41_55 241316.68001775
scalar SlicingScenario.node[7].appl meanTxThroughput_SCH_41_55 0
scalar SlicingScenario.node[7].appl rxTimeOfService_SCH_41_55 76.11442358087
scalar SlicingScenario.node[7].appl txTimeOfService_SCH_41_55 0
scalar SlicingScenario.node[7].nic.phy80211p busyTime 0.37768361290326
scalar SlicingScenario.node[7].nic.phy80211p ncollisions 0
scalar SlicingScenario.node[7].nic.phy80211p UnderSensitivityPackets 1282
scalar SlicingScenario.node[7].nic.mac1609_4 ReceivedUnicastPackets_CCH 0
scalar SlicingScenario.node[7].nic.mac1609_4 ReceivedBroadcasts_CCH 0
scalar SlicingScenario.node[7].nic.mac1609_4 SentPackets_CCH 0
scalar SlicingScenario.node[7].nic.mac1609_4 SentAcknowledgements_CCH 0
scalar SlicingScenario.node[7].nic.mac1609_4 SNIRLostPackets_CCH 0
scalar SlicingScenario.node[7].nic.mac1609_4 RXTXLostPackets_CCH 0
scalar SlicingScenario.node[7].nic.mac1609_4 TotalLostPackets_CCH 0
scalar SlicingScenario.node[7].nic.mac1609_4 DroppedPacketsInMac_CCH 0
scalar SlicingScenario.node[7].nic.mac1609_4 TooLittleTime_CCH 0
scalar SlicingScenario.node[7].nic.mac1609_4 TimesIntoBackoff_CCH 0
scalar SlicingScenario.node[7].nic.mac1609_4 SlotsBackoff_CCH 0
scalar SlicingScenario.node[7].nic.mac1609_4 NumInternalContention_CCH 0
scalar SlicingScenario.node[7].nic.mac1609_4 RemainingPacketsInEDCA_CCH 0
scalar SlicingScenario.node[7].nic.mac1609_4 totalBusyTime_CCH 0
scalar SlicingScenario.node[7].nic.mac1609_4 ReceivedUnicastPackets_SCH 0
scalar SlicingScenario.node[7].nic.mac1609_4 ReceivedBroadcasts_SCH 17762
scalar SlicingScenario.node[7].nic.mac1609_4 SentPackets_SCH 0
scalar SlicingScenario.node[7].nic.mac1609_4 SentAcknowledgements_SCH 0
scalar SlicingScenario.node[7].nic.mac1609_4 SNIRLostPackets_SCH 0
scalar SlicingScenario.node[7].nic.mac1609_4 RXTXLostPackets_SCH 0
scalar SlicingScenario.node[7].nic.mac1609_4 TotalLostPackets_SCH 0
scalar SlicingScenario.node[7].nic.mac1609_4 DroppedPacketsInMac_SCH 0
scalar SlicingScenario.node[7].nic.mac1609_4 TooLittleTime_SCH 0
scalar SlicingScenario.node[7].nic.mac1609_4 TimesIntoBackoff_SCH 0
scalar SlicingScenario.node[7].nic.mac1609_4 SlotsBackoff_SCH 0
scalar SlicingScenario.node[7].nic.mac1609_4 NumInternalContention_SCH 0
scalar SlicingScenario.node[7].nic.mac1609_4 RemainingPacketsInEDCA_SCH 0
scalar SlicingScenario.node[7].nic.mac1609_4 totalBusyTime_SCH 35.124576
scalar SlicingScenario.node[7].veinsmobility startTime 3
scalar SlicingScenario.node[7].veinsmobility totalTime 92
scalar SlicingScenario.node[7].veinsmobility stopTime 96
scalar SlicingScenario.node[7].veinsmobility minSpeed 8.5059868550026
scalar SlicingScenario.node[7].veinsmobility maxSpeed 11.104915377232
scalar SlicingScenario.node[7].veinsmobility totalDistance 981.75522779289
scalar SlicingScenario.node[7].veinsmobility totalCO2Emission 165.99513124872
scalar SlicingScenario.node[9].appl txPackets_CCH_67 0
scalar SlicingScenario.node[9].appl rxPackets_CCH_67 0
scalar SlicingScenario.node[9].appl rxNeighborPackets_CCH_67 0
scalar SlicingScenario.node[9].appl meanDelay_CCH_67 0
scalar SlicingScenario.node[9].appl meanJitter_CCH_67 0
scalar SlicingScenario.node[9].appl meanRxPacketSize_CCH_67 0
scalar SlicingScenario.node[9].appl meanTxPacketSize_CCH_67 0
scalar SlicingScenario.node[9].appl meanRxThroughput_CCH_67 0
scalar SlicingScenario.node[9].appl meanTxThroughput_CCH_67 0
scalar SlicingScenario.node[9].appl rxTimeOfService_CCH_67 0
scalar SlicingScenario.node[9].appl txTimeOfService_CCH_67 0
scalar SlicingScenario.node[9].appl txPackets_SCH_40_67 0
scalar SlicingScenario.node[9].appl rxPackets_SCH_40_67 237
scalar SlicingScenario.node[9].appl rxNeighborPackets_SCH_40_67 1569
scalar SlicingScenario.node[9].appl meanDelay_SCH_40_67 37.074180040341
scalar SlicingScenario.node[9].appl meanJitter_SCH_40_67 0.320774860835
scalar SlicingScenario.node[9].appl meanRxPacketSize_SCH_40_67 1510
scalar SlicingScenario.node[9].appl meanTxPacketSize_SCH_40_67 0
scalar SlicingScenario.node[9].appl meanRxThroughput_SCH_40_67 36500.733747017
scalar SlicingScenario.node[9].appl meanTxThroughput_SCH_40_67 0
scalar SlicingScenario.node[9].appl rxTimeOfService_SCH_40_67 78.435683508253
scalar SlicingScenario.node[9].appl txTimeOfService_SCH_40_67 0
scalar SlicingScenario.node[9].nic.phy80211p busyTime 0.37846080000002
scalar SlicingScenario.node[9].nic.phy80211p ncollisions 0
scalar SlicingScenario.node[9].nic.phy80211p UnderSensitivityPackets 1288
scalar SlicingScenario.node[9].nic.mac1609_4 ReceivedUnicastPackets_CCH 0
scalar SlicingScenario.node[9].nic.mac1609_4 ReceivedBroadcasts_CCH 0
scalar SlicingScenario.node[9].nic.mac1609_4 SentPackets_CCH 0
scalar SlicingScenario.node[9].nic.mac1609_4 SentAcknowledgements_CCH 0
scalar SlicingScenario.node[9].nic.mac1609_4 SNIRLostPackets_CCH 0
scalar SlicingScenario.node[9].nic.mac1609_4 RXTXLostPackets_CCH 0
scalar SlicingScenario.node[9].nic.mac1609_4 TotalLostPackets_CCH 0
scalar SlicingScenario.node[9].nic.mac1609_4 DroppedPacketsInMac_CCH 0
scalar SlicingScenario.node[9].nic.mac1609_4 TooLittleTime_CCH 0
scalar SlicingScenario.node[9].nic.mac1609_4 TimesIntoBackoff_CCH 0
scalar SlicingScenario.node[9].nic.mac1609_4 SlotsBackoff_CCH 0
scalar SlicingScenario.node[9].nic.mac1609_4 NumInternalContention_CCH 0
scalar SlicingScenario.node[9].nic.mac1609_4 RemainingPacketsInEDCA_CCH 0
scalar SlicingScenario.node[9].nic.mac1609_4 totalBusyTime_CCH 0
scalar SlicingScenario.node[9].nic.mac1609_4 ReceivedUnicastPackets_SCH 0
scalar SlicingScenario.node[9].nic.mac1609_4 ReceivedBroadcasts_SCH 18180
scalar SlicingScenario.node[9].nic.mac1609_4 SentPackets_SCH 0
scalar SlicingScenario.node[9].nic.mac1609_4 SentAcknowledgements_SCH 0
scalar SlicingScenario.node[9].nic.mac1609_4 SNIRLostPackets_SCH 0
scalar SlicingScenario.node[9].nic.mac1609_4 RXTXLostPackets_SCH 0
scalar SlicingScenario.node[9].nic.mac1609_4 TotalLostPackets_SCH 0
scalar SlicingScenario.node[9].nic.mac1609_4 DroppedPacketsInMac_SCH 0
scalar SlicingScenario.node[9].nic.mac1609_4 TooLittleTime_SCH 0
scalar SlicingScenario.node[9].nic.mac1609_4 TimesIntoBackoff_SCH 0
scalar SlicingScenario.node[9].nic.mac1609_4 SlotsBackoff_SCH 0
scalar SlicingScenario.node[9].nic.mac1609_4 NumInternalContention_SCH 0
scalar SlicingScenario.node[9].nic.mac1609_4 RemainingPacketsInEDCA_SCH 0
scalar SlicingScenario.node[9].nic.mac1609_4 totalBusyTime_SCH 35.951712
scalar SlicingScenario.node[9].veinsmobility startTime 3
scalar SlicingScenario.node[9].veinsmobility totalTime 94
scalar SlicingScenario.node[9].veinsmobility stopTime 98
scalar SlicingScenario.node[9].veinsmobility minSpeed 4.9413950461415
scalar SlicingScenario.node[9].veinsmobility maxSpeed 11.107956352308
scalar SlicingScenario.node[9].veinsmobility totalDistance 981.61765330609
scalar SlicingScenario.node[9].veinsmobility totalCO2Emission 173.12823614236
scalar SlicingScenario.node[8].appl txPackets_CCH_61 0
scalar SlicingScenario.node[8].appl rxPackets_CCH_61 0
scalar SlicingScenario.node[8].appl rxNeighborPackets_CCH_61 0
scalar SlicingScenario.node[8].appl meanDelay_CCH_61 0
scalar SlicingScenario.node[8].appl meanJitter_CCH_61 0
scalar SlicingScenario.node[8].appl meanRxPacketSize_CCH_61 0
scalar SlicingScenario.node[8].appl meanTxPacketSize_CCH_61 0
scalar SlicingScenario.node[8].appl meanRxThroughput_CCH_61 0
scalar SlicingScenario.node[8].appl meanTxThroughput_CCH_61 0
scalar SlicingScenario.node[8].appl rxTimeOfService_CCH_61 0
scalar SlicingScenario.node[8].appl txTimeOfService_CCH_61 0
scalar SlicingScenario.node[8].appl txPackets_SCH_40_61 0
scalar SlicingScenario.node[8].appl rxPackets_SCH_40_61 248
scalar SlicingScenario.node[8].appl rxNeighborPackets_SCH_40_61 1535
scalar SlicingScenario.node[8].appl meanDelay_SCH_40_61 35.264246639629
scalar SlicingScenario.node[8].appl meanJitter_SCH_40_61 0.306093805
scalar SlicingScenario.node[8].appl meanRxPacketSize_SCH_40_61 1510
scalar SlicingScenario.node[8].appl meanTxPacketSize_SCH_40_61 0
scalar SlicingScenario.node[8].appl meanRxThroughput_SCH_40_61 37025.802909688
scalar SlicingScenario.node[8].appl meanTxThroughput_SCH_40_61 0
scalar SlicingScenario.node[8].appl rxTimeOfService_SCH_40_61 80.912222411687
scalar SlicingScenario.node[8].appl txTimeOfService_SCH_40_61 0
scalar SlicingScenario.node[8].nic.phy80211p busyTime 0.37402408421055
scalar SlicingScenario.node[8].nic.phy80211p ncollisions 0
scalar SlicingScenario.node[8].nic.phy80211p UnderSensitivityPackets 1501
scalar SlicingScenario.node[8].nic.mac1609_4 ReceivedUnicastPackets_CCH 0
scalar SlicingScenario.node[8].nic.mac1609_4 ReceivedBroadcasts_CCH 53
scalar SlicingScenario.node[8].nic.mac1609_4 SentPackets_CCH 0
scalar SlicingScenario.node[8].nic.mac1609_4 SentAcknowledgements_CCH 0
scalar SlicingScenario.node[8].nic.mac1609_4 SNIRLostPackets_CCH 0
scalar SlicingScenario.node[8].nic.mac1609_4 RXTXLostPackets_CCH 0
scalar SlicingScenario.node[8].nic.mac1609_4 TotalLostPackets_CCH 0
scalar SlicingScenario.node[8].nic.mac1609_4 DroppedPacketsInMac_CCH 0
scalar SlicingScenario.node[8].nic.mac1609_4 TooLittleTime_CCH 0
scalar SlicingScenario.node[8].nic.mac1609_4 TimesIntoBackoff_CCH 0
scalar SlicingScenario.node[8].nic.mac1609_4 SlotsBackoff_CCH 0
scalar SlicingScenario.node[8].nic.mac1609_4 NumInternalContention_CCH 0
scalar SlicingScenario.node[8].nic.mac1609_4 RemainingPacketsInEDCA_CCH 0
scalar SlicingScenario.node[8].nic.mac1609_4 totalBusyTime_CCH 0.206027127766
scalar SlicingScenario.node[8].nic.mac1609_4 ReceivedUnicastPackets_SCH 0
scalar SlicingScenario.node[8].nic.mac1609_4 ReceivedBroadcasts_SCH 17914
scalar SlicingScenario.node[8].nic.mac1609_4 SentPackets_SCH 0
scalar SlicingScenario.node[8].nic.mac1609_4 SentAcknowledgements_SCH 0
scalar SlicingScenario.node[8].nic.mac1609_4 SNIRLostPackets_SCH 0
scalar SlicingScenario.node[8].nic.mac1609_4 RXTXLostPackets_SCH 0
scalar SlicingScenario.node[8].nic.mac1609_4 TotalLostPackets_SCH 0
scalar SlicingScenario.node[8].nic.mac1609_4 DroppedPacketsInMac_SCH 0
scalar SlicingScenario.node[8].nic.mac1609_4 TooLittleTime_SCH 0
scalar SlicingScenario.node[8].nic.mac1609_4 TimesIntoBackoff_SCH 0
scalar SlicingScenario.node[8].nic.mac1609_4 SlotsBackoff_SCH 0
scalar SlicingScenario.node[8].nic.mac1609_4 NumInternalContention_SCH 0
scalar SlicingScenario.node[8].nic.mac1609_4 RemainingPacketsInEDCA_SCH 0
scalar SlicingScenario.node[8].nic.mac1609_4 totalBusyTime_SCH 35.42688
scalar SlicingScenario.node[8].veinsmobility startTime 3
scalar SlicingScenario.node[8].veinsmobility totalTime 94
scalar SlicingScenario.node[8].veinsmobility stopTime 98
scalar SlicingScenario.node[8].veinsmobility minSpeed 4.8511985081919
scalar SlicingScenario.node[8].veinsmobility maxSpeed 11.101835747613
scalar SlicingScenario.node[8].veinsmobility totalDistance 983.27488899332
scalar SlicingScenario.node[8].veinsmobility totalCO2Emission 173.76360822253
scalar SlicingScenario.node[11].appl txPackets_CCH_79 0
scalar SlicingScenario.node[11].appl rxPackets_CCH_79 0
scalar SlicingScenario.node[11].appl rxNeighborPackets_CCH_79 0
scalar SlicingScenario.node[11].appl meanDelay_CCH_79 0
scalar SlicingScenario.node[11].appl meanJitter_CCH_79 0
scalar SlicingScenario.node[11].appl meanRxPacketSize_CCH_79 0
scalar SlicingScenario.node[11].appl meanTxPacketSize_CCH_79 0
scalar SlicingScenario.node[11].appl meanRxThroughput_CCH_79 0
scalar SlicingScenario.node[11].appl meanTxThroughput_CCH_79 0
scalar SlicingScenario.node[11].appl rxTimeOfService_CCH_79 0
scalar SlicingScenario.node[11].appl txTimeOfService_CCH_79 0
scalar SlicingScenario.node[11].appl txPackets_SCH_41_79 0
scalar SlicingScenario.node[11].appl rxPackets_SCH_41_79 1309
scalar SlicingScenario.node[11].appl rxNeighborPackets_SCH_41_79 14871
scalar SlicingScenario.node[11].appl meanDelay_SCH_41_79 44.081245530799
scalar SlicingScenario.node[11].appl meanJitter_SCH_41_79 0.058711104722
scalar SlicingScenario.node[11].appl meanRxPacketSize_SCH_41_79 1438
scalar SlicingScenario.node[11].appl meanTxPacketSize_SCH_41_79 0
scalar SlicingScenario.node[11].appl meanRxThroughput_SCH_41_79 228860.19080721
scalar SlicingScenario.node[11].appl meanTxThroughput_SCH_41_79 0
scalar SlicingScenario.node[11].appl rxTimeOfService_SCH_41_79 65.824990999375
scalar SlicingScenario.node[11].appl txTimeOfService_SCH_41_79 0
scalar SlicingScenario.node[11].nic.phy80211p busyTime 0.37395890526318
scalar SlicingScenario.node[11].nic.phy80211p ncollisions 0
scalar SlicingScenario.node[11].nic.phy80211p UnderSensitivityPackets 1718
scalar SlicingScenario.node[11].nic.mac1609_4 ReceivedUnicastPackets_CCH 0
scalar SlicingScenario.node[11].nic.mac1609_4 ReceivedBroadcasts_CCH 208
scalar SlicingScenario.node[11].nic.mac1609_4 SentPackets_CCH 0
scalar SlicingScenario.node[11].nic.mac1609_4 SentAcknowledgements_CCH 0
scalar SlicingScenario.node[11].nic.mac1609_4 SNIRLostPackets_CCH 0
scalar SlicingScenario.node[11].nic.mac1609_4 RXTXLostPackets_CCH 0
scalar SlicingScenario.node[11].nic.mac1609_4 TotalLostPackets_CCH 0
scalar SlicingScenario.node[11].nic.mac1609_4 DroppedPacketsInMac_CCH 0
scalar SlicingScenario.node[11].nic.mac1609_4 TooLittleTime_CCH 0
scalar SlicingScenario.node[11].nic.mac1609_4 TimesIntoBackoff_CCH 0
scalar SlicingScenario.node[11].nic.mac1609_4 SlotsBackoff_CCH 0
scalar SlicingScenario.node[11].nic.mac1609_4 NumInternalContention_CCH 0
scalar SlicingScenario.node[11].nic.mac1609_4 RemainingPacketsInEDCA_CCH 0
scalar SlicingScenario.node[11].nic.mac1609_4 totalBusyTime_CCH 0.798182096339
scalar SlicingScenario.node[11].nic.mac1609_4 ReceivedUnicastPackets_SCH 0
scalar SlicingScenario.node[11].nic.mac1609_4 ReceivedBroadcasts_SCH 17757
scalar SlicingScenario.node[11].nic.mac1609_4 SentPackets_SCH 0
scalar SlicingScenario.node[11].nic.mac1609_4 SentAcknowledgements_SCH 0
scalar SlicingScenario.node[11].nic.mac1609_4 SNIRLostPackets_SCH 0
scalar SlicingScenario.node[11].nic.mac1609_4 RXTXLostPackets_SCH 0
scalar SlicingScenario.node[11].nic.mac1609_4 TotalLostPackets_SCH 0
scalar SlicingScenario.node[11].nic.mac1609_4 DroppedPacketsInMac_SCH 0
scalar SlicingScenario.node[11].nic.mac1609_4 TooLittleTime_SCH 0
scalar SlicingScenario.node[11].nic.mac1609_4 TimesIntoBackoff_SCH 0
scalar SlicingScenario.node[11].nic.mac1609_4 SlotsBackoff_SCH 0
scalar SlicingScenario.node[11].nic.mac1609_4 NumInternalContention_SCH 0
scalar SlicingScenario.node[11].nic.mac1609_4 RemainingPacketsInEDCA_SCH 0
scalar SlicingScenario.node[11].nic.mac1609_4 totalBusyTime_SCH 35.119632
scalar SlicingScenario.node[11].veinsmobility startTime 4
scalar SlicingScenario.node[11].veinsmobility totalTime 94
scalar SlicingScenario.node[11].veinsmobility stopTime 99
scalar SlicingScenario.node[11].veinsmobility minSpeed 5.286186098306
scalar SlicingScenario.node[11].veinsmobility maxSpeed 11.107880685725
scalar SlicingScenario.node[11].veinsmobility totalDistance 985.35271797241
scalar SlicingScenario.node[11].veinsmobility totalCO2Emission 174.7968814539
scalar SlicingScenario.node[10].appl txPackets_CCH_73 0
scalar SlicingScenario.node[10].appl rxPackets_CCH_73 0
scalar SlicingScenario.node[10].appl rxNeighborPackets_CCH_73 0
scalar SlicingScenario.node[10].appl meanDelay_CCH_73 0
scalar SlicingScenario.node[10].appl meanJitter_CCH_73 0
scalar SlicingScenario.node[10].appl meanRxPacketSize_CCH_73 0
scalar SlicingScenario.node[10].appl meanTxPacketSize_CCH_73 0
scalar SlicingScenario.node[10].appl meanRxThroughput_CCH_73 0
scalar SlicingScenario.node[10].appl meanTxThroughput_CCH_73 0
scalar SlicingScenario.node[10].appl rxTimeOfService_CCH_73 0
scalar SlicingScenario.node[10].appl txTimeOfService_CCH_73 0
scalar SlicingScenario.node[10].appl txPackets_SCH_41_73 0
scalar SlicingScenario.node[10].appl rxPackets_SCH_41_73 1582
scalar SlicingScenario.node[10].appl rxNeighborPackets_SCH_41_73 14598
scalar SlicingScenario.node[10].appl meanDelay_SCH_41_73 38.246038360684
scalar SlicingScenario.node[10].appl meanJitter_SCH_41_73 0.048343874434
scalar SlicingScenario.node[10].appl meanRxPacketSize_SCH_41_73 1438
scalar SlicingScenario.node[10].appl meanTxPacketSize_SCH_41_73 0
scalar SlicingScenario.node[10].appl meanRxThroughput_SCH_41_73 232734.10606416
scalar SlicingScenario.node[10].appl meanTxThroughput_SCH_41_73 0
scalar SlicingScenario.node[10].appl rxTimeOfService_SCH_41_73 78.229015540082
scalar SlicingScenario.node[10].appl txTimeOfService_SCH_41_73 0
scalar SlicingScenario.node[10].nic.phy80211p busyTime 0.37006350000002
scalar SlicingScenario.node[10].nic.phy80211p ncollisions 0
scalar SlicingScenario.node[10].nic.phy80211p UnderSensitivityPackets 1718
scalar SlicingScenario.node[10].nic.mac1609_4 ReceivedUnicastPackets_CCH 0
scalar SlicingScenario.node[10].nic.mac1609_4 ReceivedBroadcasts_CCH 0
scalar SlicingScenario.node[10].nic.mac1609_4 SentPackets_CCH 0
scalar SlicingScenario.node[10].nic.mac1609_4 SentAcknowledgements_CCH 0
scalar SlicingScenario.node[10].nic.mac1609_4 SNIRLostPackets_CCH 0
scalar SlicingScenario.node[10].nic.mac1609_4 RXTXLostPackets_CCH 0
scalar SlicingScenario.node[10].nic.mac1609_4 TotalLostPackets_CCH 0
scalar SlicingScenario.node[10].nic.mac1609_4 DroppedPacketsInMac_CCH 0
scalar SlicingScenario.node[10].nic.mac1609_4 TooLittleTime_CCH 0
scalar SlicingScenario.node[10].nic.mac1609_4 TimesIntoBackoff_CCH 0
scalar SlicingScenario.node[10].nic.mac1609_4 SlotsBackoff_CCH 0
scalar SlicingScenario.node[10].nic.mac1609_4 NumInternalContention_CCH 0
scalar SlicingScenario.node[10].nic.mac1609_4 RemainingPacketsInEDCA_CCH 0
scalar SlicingScenario.node[10].nic.mac1609_4 totalBusyTime_CCH 0
scalar SlicingScenario.node[10].nic.mac1609_4 ReceivedUnicastPackets_SCH 0
scalar SlicingScenario.node[10].nic.mac1609_4 ReceivedBroadcasts_SCH 17965
scalar SlicingScenario.node[10].nic.mac1609_4 SentPackets_SCH 0
scalar SlicingScenario.node[10].nic.mac1609_4 SentAcknowledgements_SCH 0
scalar SlicingScenario.node[10].nic.mac1609_4 SNIRLostPackets_SCH 0
scalar SlicingScenario.node[10].nic.mac1609_4 RXTXLostPackets_SCH 0
scalar SlicingScenario.node[10].nic.mac1609_4 TotalLostPackets_SCH 0
scalar SlicingScenario.node[10].nic.mac1609_4 DroppedPacketsInMac_SCH 0
scalar SlicingScenario.node[10].nic.mac1609_4 TooLittleTime_SCH 0
scalar SlicingScenario.node[10].nic.mac1609_4 TimesIntoBackoff_SCH 0
scalar SlicingScenario.node[10].nic.mac1609_4 SlotsBackoff_SCH 0
scalar SlicingScenario.node[10].nic.mac1609_4 NumInternalContention_SCH 0
scalar SlicingScenario.node[10].nic.mac1609_4 RemainingPacketsInEDCA_SCH 0
scalar SlicingScenario.node[10].nic.mac1609_4 totalBusyTime_SCH 35.526096
scalar SlicingScenario.node[10].veinsmobility startTime 3
scalar SlicingScenario.node[10].veinsmobility totalTime 95
scalar SlicingScenario.node[10].veinsmobility stopTime 99
scalar SlicingScenario.node[10].veinsmobility minSpeed 4.58464467772
scalar SlicingScenario.node[10].veinsmobility maxSpeed 11.10099785299
scalar SlicingScenario.node[10].veinsmobility totalDistance 986.19669927518
scalar SlicingScenario.node[10].veinsmobility totalCO2Emission 174.66438242066
scalar SlicingScenario.node[15].appl txPackets_CCH_103 0
scalar SlicingScenario.node[15].appl rxPackets_CCH_103 0
scalar SlicingScenario.node[15].appl rxNeighborPackets_CCH_103 0
scalar SlicingScenario.node[15].appl meanDelay_CCH_103 0
scalar SlicingScenario.node[15].appl meanJitter_CCH_103 0
scalar SlicingScenario.node[15].appl meanRxPacketSize_CCH_103 0
scalar SlicingScenario.node[15].appl meanTxPacketSize_CCH_103 0
scalar SlicingScenario.node[15].appl meanRxThroughput_CCH_103 0
scalar SlicingScenario.node[15].appl meanTxThroughput_CCH_103 0
scalar SlicingScenario.node[15].appl rxTimeOfService_CCH_103 0
scalar SlicingScenario.node[15].appl txTimeOfService_CCH_103 0
scalar SlicingScenario.node[15].appl txPackets_SCH_41_103 0
scalar SlicingScenario.node[15].appl rxPackets_SCH_41_103 846
scalar SlicingScenario.node[15].appl rxNeighborPackets_SCH_41_103 15717
scalar SlicingScenario.node[15].appl meanDelay_SCH_41_103 54.53267822028
scalar SlicingScenario.node[15].appl meanJitter_SCH_41_103 0.091620604276
scalar SlicingScenario.node[15].appl meanRxPacketSize_SCH_41_103 1438
scalar SlicingScenario.node[15].appl meanTxPacketSize_SCH_41_103 0
scalar SlicingScenario.node[15].appl meanRxThroughput_SCH_41_103 202783.1715306
scalar SlicingScenario.node[15].appl meanTxThroughput_SCH_41_103 0
scalar SlicingScenario.node[15].appl rxTimeOfService_SCH_41_103 48.010295561093
scalar SlicingScenario.node[15].appl txTimeOfService_SCH_41_103 0
scalar SlicingScenario.node[15].nic.phy80211p busyTime 0.3869560851064
scalar SlicingScenario.node[15].nic.phy80211p ncollisions 0
scalar SlicingScenario.node[15].nic.phy80211p UnderSensitivityPackets 1502
scalar SlicingScenario.node[15].nic.mac1609_4 ReceivedUnicastPackets_CCH 0
scalar SlicingScenario.node[15].nic.mac1609_4 ReceivedBroadcasts_CCH 52
scalar SlicingScenario.node[15].nic.mac1609_4 SentPackets_CCH 0
scalar SlicingScenario.node[15].nic.mac1609_4 SentAcknowledgements_CCH 0
scalar SlicingScenario.node[15].nic.mac1609_4 SNIRLostPackets_CCH 0
scalar SlicingScenario.node[15].nic.mac1609_4 RXTXLostPackets_CCH 0
scalar SlicingScenario.node[15].nic.mac1609_4 TotalLostPackets_CCH 0
scalar SlicingScenario.node[15].nic.mac1609_4 DroppedPacketsInMac_CCH 0
scalar SlicingScenario.node[15].nic.mac1609_4 TooLittleTime_CCH 0
scalar SlicingScenario.node[15].nic.mac1609_4 TimesIntoBackoff_CCH 0
scalar SlicingScenario.node[15].nic.mac1609_4 SlotsBackoff_CCH 0
scalar SlicingScenario.node[15].nic.mac1609_4 NumInternalContention_CCH 0
scalar SlicingScenario.node[15].nic.mac1609_4 RemainingPacketsInEDCA_CCH 0
scalar SlicingScenario.node[15].nic.mac1609_4 totalBusyTime_CCH 0.200828308392
scalar SlicingScenario.node[15].nic.mac1609_4 ReceivedUnicastPackets_SCH 0
scalar SlicingScenario.node[15].nic.mac1609_4 ReceivedBroadcasts_SCH 18341
scalar SlicingScenario.node[15].nic.mac1609_4 SentPackets_SCH 0
scalar SlicingScenario.node[15].nic.mac1609_4 SentAcknowledgements_SCH 0
scalar SlicingScenario.node[15].nic.mac1609_4 SNIRLostPackets_SCH 0
scalar SlicingScenario.node[15].nic.mac1609_4 RXTXLostPackets_SCH 0
scalar SlicingScenario.node[15].nic.mac1609_4 TotalLostPackets_SCH 0
scalar SlicingScenario.node[15].nic.mac1609_4 DroppedPacketsInMac_SCH 0
scalar SlicingScenario.node[15].nic.mac1609_4 TooLittleTime_SCH 0
scalar SlicingScenario.node[15].nic.mac1609_4 TimesIntoBackoff_SCH 0
scalar SlicingScenario.node[15].nic.mac1609_4 SlotsBackoff_SCH 0
scalar SlicingScenario.node[15].nic.mac1609_4 NumInternalContention_SCH 0
scalar SlicingScenario.node[15].nic.mac1609_4 RemainingPacketsInEDCA_SCH 0
scalar SlicingScenario.node[15].nic.mac1609_4 totalBusyTime_SCH 36.273264
scalar SlicingScenario.node[15].veinsmobility startTime 6
scalar SlicingScenario.node[15].veinsmobility totalTime 93
scalar SlicingScenario.node[15].veinsmobility stopTime 100
scalar SlicingScenario.node[15].veinsmobility minSpeed 5.339356473075
scalar SlicingScenario.node[15].veinsmobility maxSpeed 11.1080699874
scalar SlicingScenario.node[15].veinsmobility totalDistance 978.52517017244
scalar SlicingScenario.node[15].veinsmobility totalCO2Emission 172.44908655254
scalar SlicingScenario.node[12].appl txPackets_CCH_85 0
scalar SlicingScenario.node[12].appl rxPackets_CCH_85 0
scalar SlicingScenario.node[12].appl rxNeighborPackets_CCH_85 0
scalar SlicingScenario.node[12].appl meanDelay_CCH_85 0
scalar SlicingScenario.node[12].appl meanJitter_CCH_85 0
scalar SlicingScenario.node[12].appl meanRxPacketSize_CCH_85 0
scalar SlicingScenario.node[12].appl meanTxPacketSize_CCH_85 0
scalar SlicingScenario.node[12].appl meanRxThroughput_CCH_85 0
scalar SlicingScenario.node[12].appl meanTxThroughput_CCH_85 0
scalar SlicingScenario.node[12].appl rxTimeOfService_CCH_85 0
scalar SlicingScenario.node[12].appl txTimeOfService_CCH_85 0
scalar SlicingScenario.node[12].appl txPackets_SCH_40_85 0
scalar SlicingScenario.node[12].appl rxPackets_SCH_40_85 171
scalar SlicingScenario.node[12].appl rxNeighborPackets_SCH_40_85 1680
scalar SlicingScenario.node[12].appl meanDelay_SCH_40_85 47.383252837045
scalar SlicingScenario.node[12].appl meanJitter_SCH_40_85 0.456389536213
scalar SlicingScenario.node[12].appl meanRxPacketSize_SCH_40_85 1510
scalar SlicingScenario.node[12].appl meanTxPacketSize_SCH_40_85 0
scalar SlicingScenario.node[12].appl meanRxThroughput_SCH_40_85 33637.399395462
scalar SlicingScenario.node[12].appl meanTxThroughput_SCH_40_85 0
scalar SlicingScenario.node[12].appl rxTimeOfService_SCH_40_85 61.410217113237
scalar SlicingScenario.node[12].appl txTimeOfService_SCH_40_85 0
scalar SlicingScenario.node[12].nic.phy80211p busyTime 0.38733423157896
scalar SlicingScenario.node[12].nic.phy80211p ncollisions 0
scalar SlicingScenario.node[12].nic.phy80211p UnderSensitivityPackets 1288
scalar SlicingScenario.node[12].nic.mac1609_4 ReceivedUnicastPackets_CCH 0
scalar SlicingScenario.node[12].nic.mac1609_4 ReceivedBroadcasts_CCH 73
scalar SlicingScenario.node[12].nic.mac1609_4 SentPackets_CCH 0
scalar SlicingScenario.node[12].nic.mac1609_4 SentAcknowledgements_CCH 0
scalar SlicingScenario.node[12].nic.mac1609_4 SNIRLostPackets_CCH 0
scalar SlicingScenario.node[12].nic.mac1609_4 RXTXLostPackets_CCH 0
scalar SlicingScenario.node[12].nic.mac1609_4 TotalLostPackets_CCH 0
scalar SlicingScenario.node[12].nic.mac1609_4 DroppedPacketsInMac_CCH 0
scalar SlicingScenario.node[12].nic.mac1609_4 TooLittleTime_CCH 0
scalar SlicingScenario.node[12].nic.mac1609_4 TimesIntoBackoff_CCH 0
scalar SlicingScenario.node[12].nic.mac1609_4 SlotsBackoff_CCH 0
scalar SlicingScenario.node[12].nic.mac1609_4 NumInternalContention_CCH 0
scalar SlicingScenario.node[12].nic.mac1609_4 RemainingPacketsInEDCA_CCH 0
scalar SlicingScenario.node[12].nic.mac1609_4 totalBusyTime_CCH 0.282504052443
scalar SlicingScenario.node[12].nic.mac1609_4 ReceivedUnicastPackets_SCH 0
scalar SlicingScenario.node[12].nic.mac1609_4 ReceivedBroadcasts_SCH 18534
scalar SlicingScenario.node[12].nic.mac1609_4 SentPackets_SCH 0
scalar SlicingScenario.node[12].nic.mac1609_4 SentAcknowledgements_SCH 0
scalar SlicingScenario.node[12].nic.mac1609_4 SNIRLostPackets_SCH 0
scalar SlicingScenario.node[12].nic.mac1609_4 RXTXLostPackets_SCH 0
scalar SlicingScenario.node[12].nic.mac1609_4 TotalLostPackets_SCH 0
scalar SlicingScenario.node[12].nic.mac1609_4 DroppedPacketsInMac_SCH 0
scalar SlicingScenario.node[12].nic.mac1609_4 TooLittleTime_SCH 0
scalar SlicingScenario.node[12].nic.mac1609_4 TimesIntoBackoff_SCH 0
scalar SlicingScenario.node[12].nic.mac1609_4 SlotsBackoff_SCH 0
scalar SlicingScenario.node[12].nic.mac1609_4 NumInternalContention_SCH 0
scalar SlicingScenario.node[12].nic.mac1609_4 RemainingPacketsInEDCA_SCH 0
scalar SlicingScenario.node[12].nic.mac1609_4 totalBusyTime_SCH 36.654816
scalar SlicingScenario.node[12].veinsmobility startTime 5
scalar SlicingScenario.node[12].veinsmobility totalTime 94
scalar SlicingScenario.node[12].veinsmobility stopTime 100
scalar SlicingScenario.node[12].veinsmobility minSpeed 4.716165769516
scalar SlicingScenario.node[12].veinsmobility maxSpeed 11.105907062548
scalar SlicingScenario.node[12].veinsmobility totalDistance 981.50162548963
scalar SlicingScenario.node[12].veinsmobility totalCO2Emission 174.37234564345
scalar SlicingScenario.node[13].appl txPackets_CCH_91 0
scalar SlicingScenario.node[13].appl rxPackets_CCH_91 0
scalar SlicingScenario.node[13].appl rxNeighborPackets_CCH_91 0
scalar SlicingScenario.node[13].appl meanDelay_CCH_91 0
scalar SlicingScenario.node[13].appl meanJitter_CCH_91 0
scalar SlicingScenario.node[13].appl meanRxPacketSize_CCH_91 0
scalar SlicingScenario.node[13].appl meanTxPacketSize_CCH_91 0
scalar SlicingScenario.node[13].appl meanRxThroughput_CCH_91 0
scalar SlicingScenario.node[13].appl meanTxThroughput_CCH_91 0
scalar SlicingScenario.node[13].appl rxTimeOfService_CCH_91 0
scalar SlicingScenario.node[13].appl txTimeOfService_CCH_91 0
scalar SlicingScenario.node[13].appl txPackets_SCH_40_91 0
scalar SlicingScenario.node[13].appl rxPackets_SCH_40_91 157
scalar SlicingScenario.node[13].appl rxNeighborPackets_SCH_40_91 1674
scalar SlicingScenario.node[13].appl meanDelay_SCH_40_91 49.635406274121
scalar SlicingScenario.node[13].appl meanJitter_SCH_40_91 0.497441592545
scalar SlicingScenario.node[13].appl meanRxPacketSize_SCH_40_91 1510
scalar SlicingScenario.node[13].appl meanTxPacketSize_SCH_40_91 0
scalar SlicingScenario.node[13].appl meanRxThroughput_SCH_40_91 32933.39107731
scalar SlicingScenario.node[13].appl meanTxThroughput_SCH_40_91 0
scalar SlicingScenario.node[13].appl rxTimeOfService_SCH_40_91 57.587753278972
scalar SlicingScenario.node[13].appl txTimeOfService_SCH_40_91 0
scalar SlicingScenario.node[13].nic.phy80211p busyTime 0.38283941052633
scalar SlicingScenario.node[13].nic.phy80211p ncollisions 0
scalar SlicingScenario.node[13].nic.phy80211p UnderSensitivityPackets 1504
scalar SlicingScenario.node[13].nic.mac1609_4 ReceivedUnicastPackets_CCH 0
scalar SlicingScenario.node[13].nic.mac1609_4 ReceivedBroadcasts_CCH 0
scalar SlicingScenario.node[13].nic.mac1609_4 SentPackets_CCH 0
scalar SlicingScenario.node[13].nic.mac1609_4 SentAcknowledgements_CCH 0
scalar SlicingScenario.node[13].nic.mac1609_4 SNIRLostPackets_CCH 0
scalar SlicingScenario.node[13].nic.mac1609_4 RXTXLostPackets_CCH 0
scalar SlicingScenario.node[13].nic.mac1609_4 TotalLostPackets_CCH 0
scalar SlicingScenario.node[13].nic.mac1609_4 DroppedPacketsInMac_CCH 0
scalar SlicingScenario.node[13].nic.mac1609_4 TooLittleTime_CCH 0
scalar SlicingScenario.node[13].nic.mac1609_4 TimesIntoBackoff_CCH 0
scalar SlicingScenario.node[13].nic.mac1609_4 SlotsBackoff_CCH 0
scalar SlicingScenario.node[13].nic.mac1609_4 NumInternalContention_CCH 0
scalar SlicingScenario.node[13].nic.mac1609_4 RemainingPacketsInEDCA_CCH 0
scalar SlicingScenario.node[13].nic.mac1609_4 totalBusyTime_CCH 0
scalar SlicingScenario.node[13].nic.mac1609_4 ReceivedUnicastPackets_SCH 0
scalar SlicingScenario.node[13].nic.mac1609_4 ReceivedBroadcasts_SCH 18391
scalar SlicingScenario.node[13].nic.mac1609_4 SentPackets_SCH 0
scalar SlicingScenario.node[13].nic.mac1609_4 SentAcknowledgements_SCH 0
scalar SlicingScenario.node[13].nic.mac1609_4 SNIRLostPackets_SCH 0
scalar SlicingScenario.node[13].nic.mac1609_4 RXTXLostPackets_SCH 0
scalar SlicingScenario.node[13].nic.mac1609_4 TotalLostPackets_SCH 0
scalar SlicingScenario.node[13].nic.mac1609_4 DroppedPacketsInMac_SCH 0
scalar SlicingScenario.node[13].nic.mac1609_4 TooLittleTime_SCH 0
scalar SlicingScenario.node[13].nic.mac1609_4 TimesIntoBackoff_SCH 0
scalar SlicingScenario.node[13].nic.mac1609_4 SlotsBackoff_SCH 0
scalar SlicingScenario.node[13].nic.mac1609_4 NumInternalContention_SCH 0
scalar SlicingScenario.node[13].nic.mac1609_4 RemainingPacketsInEDCA_SCH 0
scalar SlicingScenario.node[13].nic.mac1609_4 totalBusyTime_SCH 36.369744
scalar SlicingScenario.node[13].veinsmobility startTime 5
scalar SlicingScenario.node[13].veinsmobility totalTime 94
scalar SlicingScenario.node[13].veinsmobility stopTime 100
scalar SlicingScenario.node[13].veinsmobility minSpeed 5.0128677963475
scalar SlicingScenario.node[13].veinsmobility maxSpeed 11.109543542624
scalar SlicingScenario.node[13].veinsmobility totalDistance 984.34045838855
scalar SlicingScenario.node[13].veinsmobility totalCO2Emission 174.06343418216
scalar SlicingScenario.node[17].appl txPackets_CCH_115 0
scalar SlicingScenario.node[17].appl rxPackets_CCH_115 0
scalar SlicingScenario.node[17].appl rxNeighborPackets_CCH_115 0
scalar SlicingScenario.node[17].appl meanDelay_CCH_115 0
scalar SlicingScenario.node[17].appl meanJitter_CCH_115 0
scalar SlicingScenario.node[17].appl meanRxPacketSize_CCH_115 0
scalar SlicingScenario.node[17].appl meanTxPacketSize_CCH_115 0
scalar SlicingScenario.node[17].appl meanRxThroughput_CCH_115 0
scalar SlicingScenario.node[17].appl meanTxThroughput_CCH_115 0
scalar SlicingScenario.node[17].appl rxTimeOfService_CCH_115 0
scalar SlicingScenario.node[17].appl txTimeOfService_CCH_115 0
scalar SlicingScenario.node[17].appl txPackets_SCH_41_115 0
scalar SlicingScenario.node[17].appl rxPackets_SCH_41_115 413
scalar SlicingScenario.node[17].appl rxNeighborPackets_SCH_41_115 16346
scalar SlicingScenario.node[17].appl meanDelay_SCH_41_115 67.321824773931
scalar SlicingScenario.node[17].appl meanJitter_SCH_41_115 0.190731602949
scalar SlicingScenario.node[17].appl meanRxPacketSize_SCH_41_115 1438
scalar SlicingScenario.node[17].appl meanTxPacketSize_SCH_41_115 0
scalar SlicingScenario.node[17].appl meanRxThroughput_SCH_41_115 169914.53436382
scalar SlicingScenario.node[17].appl meanTxThroughput_SCH_41_115 0
scalar SlicingScenario.node[17].appl rxTimeOfService_SCH_41_115 27.973122003929
scalar SlicingScenario.node[17].appl txTimeOfService_SCH_41_115 0
scalar SlicingScenario.node[17].nic.phy80211p busyTime 0.39144765957448
scalar SlicingScenario.node[17].nic.phy80211p ncollisions 0
scalar SlicingScenario.node[17].nic.phy80211p UnderSensitivityPackets 1504
scalar SlicingScenario.node[17].nic.mac1609_4 ReceivedUnicastPackets_CCH 0
scalar SlicingScenario.node[17].nic.mac1609_4 ReceivedBroadcasts_CCH 114
scalar SlicingScenario.node[17].nic.mac1609_4 SentPackets_CCH 0
scalar SlicingScenario.node[17].nic.mac1609_4 SentAcknowledgements_CCH 0
scalar SlicingScenario.node[17].nic.mac1609_4 SNIRLostPackets_CCH 0
scalar SlicingScenario.node[17].nic.mac1609_4 RXTXLostPackets_CCH 0
scalar SlicingScenario.node[17].nic.mac1609_4 TotalLostPackets_CCH 0
scalar SlicingScenario.node[17].nic.mac1609_4 DroppedPacketsInMac_CCH 0
scalar SlicingScenario.node[17].nic.mac1609_4 TooLittleTime_CCH 0
scalar SlicingScenario.node[17].nic.mac1609_4 TimesIntoBackoff_CCH 0
scalar SlicingScenario.node[17].nic.mac1609_4 SlotsBackoff_CCH 0
scalar SlicingScenario.node[17].nic.mac1609_4 NumInternalContention_CCH 0
scalar SlicingScenario.node[17].nic.mac1609_4 RemainingPacketsInEDCA_CCH 0
scalar SlicingScenario.node[17].nic.mac1609_4 totalBusyTime_CCH 0.442281865042
scalar SlicingScenario.node[17].nic.mac1609_4 ReceivedUnicastPackets_SCH 0
scalar SlicingScenario.node[17].nic.mac1609_4 ReceivedBroadcasts_SCH 18493
scalar SlicingScenario.node[17].nic.mac1609_4 SentPackets_SCH 0
scalar SlicingScenario.node[17].nic.mac1609_4 SentAcknowledgements_SCH 0
scalar SlicingScenario.node[17].nic.mac1609_4 SNIRLostPackets_SCH 0
scalar SlicingScenario.node[17].nic.mac1609_4 RXTXLostPackets_SCH 0
scalar SlicingScenario.node[17].nic.mac1609_4 TotalLostPackets_SCH 0
scalar SlicingScenario.node[17].nic.mac1609_4 DroppedPacketsInMac_SCH 0
scalar SlicingScenario.node[17].nic.mac1609_4 TooLittleTime_SCH 0
scalar SlicingScenario.node[17].nic.mac1609_4 TimesIntoBackoff_SCH 0
scalar SlicingScenario.node[17].nic.mac1609_4 SlotsBackoff_SCH 0
scalar SlicingScenario.node[17].nic.mac1609_4 NumInternalContention_SCH 0
scalar SlicingScenario.node[17].nic.mac1609_4 RemainingPacketsInEDCA_SCH 0
scalar SlicingScenario.node[17].nic.mac1609_4 totalBusyTime_SCH 36.57288
scalar SlicingScenario.node[17].veinsmobility startTime 7
scalar SlicingScenario.node[17].veinsmobility totalTime 93
scalar SlicingScenario.node[17].veinsmobility stopTime 101
scalar SlicingScenario.node[17].veinsmobility minSpeed 5.2444182861545
scalar SlicingScenario.node[17].veinsmobility maxSpeed 11.10701755133
scalar SlicingScenario.node[17].veinsmobility totalDistance 976.94011410461
scalar SlicingScenario.node[17].veinsmobility totalCO2Emission 173.62278016803
scalar SlicingScenario.node[14].appl txPackets_CCH_97 0
scalar SlicingScenario.node[14].appl rxPackets_CCH_97 0
scalar SlicingScenario.node[14].appl rxNeighborPackets_CCH_97 0
scalar SlicingScenario.node[14].appl meanDelay_CCH_97 0
scalar SlicingScenario.node[14].appl meanJitter_CCH_97 0
scalar SlicingScenario.node[14].appl meanRxPacketSize_CCH_97 0
scalar SlicingScenario.node[14].appl meanTxPacketSize_CCH_97 0
scalar SlicingScenario.node[14].appl meanRxThroughput_CCH_97 0
scalar SlicingScenario.node[14].appl meanTxThroughput_CCH_97 0
scalar SlicingScenario.node[14].appl rxTimeOfService_CCH_97 0
scalar SlicingScenario.node[14].appl txTimeOfService_CCH_97 0
scalar SlicingScenario.node[14].appl txPackets_SCH_41_97 0
scalar SlicingScenario.node[14].appl rxPackets_SCH_41_97 1036
scalar SlicingScenario.node[14].appl rxNeighborPackets_SCH_41_97 15530
scalar SlicingScenario.node[14].appl meanDelay_SCH_41_97 51.030593993398
scalar SlicingScenario.node[14].appl meanJitter_SCH_41_97 0.075679682939
scalar SlicingScenario.node[14].appl meanRxPacketSize_SCH_41_97 1438
scalar SlicingScenario.node[14].appl meanTxPacketSize_SCH_41_97 0
scalar SlicingScenario.node[14].appl meanRxThroughput_SCH_41_97 211743.23377019
scalar SlicingScenario.node[14].appl meanTxThroughput_SCH_41_97 0
scalar SlicingScenario.node[14].appl rxTimeOfService_SCH_41_97 56.308198319764
scalar SlicingScenario.node[14].appl txTimeOfService_SCH_41_97 0
scalar SlicingScenario.node[14].nic.phy80211p busyTime 0.37888750000002
scalar SlicingScenario.node[14].nic.phy80211p ncollisions 0
scalar SlicingScenario.node[14].nic.phy80211p UnderSensitivityPackets 1718
scalar SlicingScenario.node[14].nic.mac1609_4 ReceivedUnicastPackets_CCH 0
scalar SlicingScenario.node[14].nic.mac1609_4 ReceivedBroadcasts_CCH 249
scalar SlicingScenario.node[14].nic.mac1609_4 SentPackets_CCH 0
scalar SlicingScenario.node[14].nic.mac1609_4 SentAcknowledgements_CCH 0
scalar SlicingScenario.node[14].nic.mac1609_4 SNIRLostPackets_CCH 0
scalar SlicingScenario.node[14].nic.mac1609_4 RXTXLostPackets_CCH 0
scalar SlicingScenario.node[14].nic.mac1609_4 TotalLostPackets_CCH 0
scalar SlicingScenario.node[14].nic.mac1609_4 DroppedPacketsInMac_CCH 0
scalar SlicingScenario.node[14].nic.mac1609_4 TooLittleTime_CCH 0
scalar SlicingScenario.node[14].nic.mac1609_4 TimesIntoBackoff_CCH 0
scalar SlicingScenario.node[14].nic.mac1609_4 SlotsBackoff_CCH 0
scalar SlicingScenario.node[14].nic.mac1609_4 NumInternalContention_CCH 0
scalar SlicingScenario.node[14].nic.mac1609_4 RemainingPacketsInEDCA_CCH 0
scalar SlicingScenario.node[14].nic.mac1609_4 totalBusyTime_CCH 0.959485787147
scalar SlicingScenario.node[14].nic.mac1609_4 ReceivedUnicastPackets_SCH 0
scalar SlicingScenario.node[14].nic.mac1609_4 ReceivedBroadcasts_SCH 18144
scalar SlicingScenario.node[14].nic.mac1609_4 SentPackets_SCH 0
scalar SlicingScenario.node[14].nic.mac1609_4 SentAcknowledgements_SCH 0
scalar SlicingScenario.node[14].nic.mac1609_4 SNIRLostPackets_SCH 0
scalar SlicingScenario.node[14].nic.mac1609_4 RXTXLostPackets_SCH 0
scalar SlicingScenario.node[14].nic.mac1609_4 TotalLostPackets_SCH 0
scalar SlicingScenario.node[14].nic.mac1609_4 DroppedPacketsInMac_SCH 0
scalar SlicingScenario.node[14].nic.mac1609_4 TooLittleTime_SCH 0
scalar SlicingScenario.node[14].nic.mac1609_4 TimesIntoBackoff_SCH 0
scalar SlicingScenario.node[14].nic.mac1609_4 SlotsBackoff_SCH 0
scalar SlicingScenario.node[14].nic.mac1609_4 NumInternalContention_SCH 0
scalar SlicingScenario.node[14].nic.mac1609_4 RemainingPacketsInEDCA_SCH 0
scalar SlicingScenario.node[14].nic.mac1609_4 totalBusyTime_SCH 35.882784
scalar SlicingScenario.node[14].veinsmobility startTime 5
scalar SlicingScenario.node[14].veinsmobility totalTime 95
scalar SlicingScenario.node[14].veinsmobility stopTime 101
scalar SlicingScenario.node[14].veinsmobility minSpeed 3.7255607170444
scalar SlicingScenario.node[14].veinsmobility maxSpeed 11.106969730593
scalar SlicingScenario.node[14].veinsmobility totalDistance 984.75806482914
scalar SlicingScenario.node[14].veinsmobility totalCO2Emission 176.38376507233
scalar SlicingScenario.node[19].appl txPackets_CCH_127 0
scalar SlicingScenario.node[19].appl rxPackets_CCH_127 0
scalar SlicingScenario.node[19].appl rxNeighborPackets_CCH_127 0
scalar SlicingScenario.node[19].appl meanDelay_CCH_127 0
scalar SlicingScenario.node[19].appl meanJitter_CCH_127 0
scalar SlicingScenario.node[19].appl meanRxPacketSize_CCH_127 0
scalar SlicingScenario.node[19].appl meanTxPacketSize_CCH_127 0
scalar SlicingScenario.node[19].appl meanRxThroughput_CCH_127 0
scalar SlicingScenario.node[19].appl meanTxThroughput_CCH_127 0
scalar SlicingScenario.node[19].appl rxTimeOfService_CCH_127 0
scalar SlicingScenario.node[19].appl txTimeOfService_CCH_127 0
scalar SlicingScenario.node[19].appl txPackets_SCH_41_127 0
scalar SlicingScenario.node[19].appl rxPackets_SCH_41_127 217
scalar SlicingScenario.node[19].appl rxNeighborPackets_SCH_41_127 16748
scalar SlicingScenario.node[19].appl meanDelay_SCH_41_127 73.457657966645
scalar SlicingScenario.node[19].appl meanJitter_SCH_41_127 0.367217045819
scalar SlicingScenario.node[19].appl meanRxPacketSize_SCH_41_127 1438
scalar SlicingScenario.node[19].appl meanTxPacketSize_SCH_41_127 0
scalar SlicingScenario.node[19].appl meanRxThroughput_SCH_41_127 193563.69160017
scalar SlicingScenario.node[19].appl meanTxThroughput_SCH_41_127 0
scalar SlicingScenario.node[19].appl rxTimeOfService_SCH_41_127 12.902006462858
scalar SlicingScenario.node[19].appl txTimeOfService_SCH_41_127 0
scalar SlicingScenario.node[19].nic.phy80211p busyTime 0.39662706382979
scalar SlicingScenario.node[19].nic.phy80211p ncollisions 0
scalar SlicingScenario.node[19].nic.phy80211p UnderSensitivityPackets 1289
scalar SlicingScenario.node[19].nic.mac1609_4 ReceivedUnicastPackets_CCH 0
scalar SlicingScenario.node[19].nic.mac1609_4 ReceivedBroadcasts_CCH 22
scalar SlicingScenario.node[19].nic.mac1609_4 SentPackets_CCH 0
scalar SlicingScenario.node[19].nic.mac1609_4 SentAcknowledgements_CCH 0
scalar SlicingScenario.node[19].nic.mac1609_4 SNIRLostPackets_CCH 0
scalar SlicingScenario.node[19].nic.mac1609_4 RXTXLostPackets_CCH 0
scalar SlicingScenario.node[19].nic.mac1609_4 TotalLostPackets_CCH 0
scalar SlicingScenario.node[19].nic.mac1609_4 DroppedPacketsInMac_CCH 0
scalar SlicingScenario.node[19].nic.mac1609_4 TooLittleTime_CCH 0
scalar SlicingScenario.node[19].nic.mac1609_4 TimesIntoBackoff_CCH 0
scalar SlicingScenario.node[19].nic.mac1609_4 SlotsBackoff_CCH 0
scalar SlicingScenario.node[19].nic.mac1609_4 NumInternalContention_CCH 0
scalar SlicingScenario.node[19].nic.mac1609_4 RemainingPacketsInEDCA_CCH 0
scalar SlicingScenario.node[19].nic.mac1609_4 totalBusyTime_CCH 0.086564318528
scalar SlicingScenario.node[19].nic.mac1609_4 ReceivedUnicastPackets_SCH 0
scalar SlicingScenario.node[19].nic.mac1609_4 ReceivedBroadcasts_SCH 18830
scalar SlicingScenario.node[19].nic.mac1609_4 SentPackets_SCH 0
scalar SlicingScenario.node[19].nic.mac1609_4 SentAcknowledgements_SCH 0
scalar SlicingScenario.node[19].nic.mac1609_4 SNIRLostPackets_SCH 0
scalar SlicingScenario.node[19].nic.mac1609_4 RXTXLostPackets_SCH 0
scalar SlicingScenario.node[19].nic.mac1609_4 TotalLostPackets_SCH 0
scalar SlicingScenario.node[19].nic.mac1609_4 DroppedPacketsInMac_SCH 0
scalar SlicingScenario.node[19].nic.mac1609_4 TooLittleTime_SCH 0
scalar SlicingScenario.node[19].nic.mac1609_4 TimesIntoBackoff_SCH 0
scalar SlicingScenario.node[19].nic.mac1609_4 SlotsBackoff_SCH 0
scalar SlicingScenario.node[19].nic.mac1609_4 NumInternalContention_SCH 0
scalar SlicingScenario.node[19].nic.mac1609_4 RemainingPacketsInEDCA_SCH 0
scalar SlicingScenario.node[19].nic.mac1609_4 totalBusyTime_SCH 37.239552
scalar SlicingScenario.node[19].veinsmobility startTime 8
scalar SlicingScenario.node[19].veinsmobility totalTime 93
scalar SlicingScenario.node[19].veinsmobility stopTime 102
scalar SlicingScenario.node[19].veinsmobility minSpeed 5.6712904536786
scalar SlicingScenario.node[19].veinsmobility maxSpeed 11.109202716048
scalar SlicingScenario.node[19].veinsmobility totalDistance 980.33711319953
scalar SlicingScenario.node[19].veinsmobility totalCO2Emission 170.46052871016
scalar SlicingScenario.node[18].appl txPackets_CCH_121 0
scalar SlicingScenario.node[18].appl rxPackets_CCH_121 0
scalar SlicingScenario.node[18].appl rxNeighborPackets_CCH_121 0
scalar SlicingScenario.node[18].appl meanDelay_CCH_121 0
scalar SlicingScenario.node[18].appl meanJitter_CCH_121 0
scalar SlicingScenario.node[18].appl meanRxPacketSize_CCH_121 0
scalar SlicingScenario.node[18].appl meanTxPacketSize_CCH_121 0
scalar SlicingScenario.node[18].appl meanRxThroughput_CCH_121 0
scalar SlicingScenario.node[18].appl meanTxThroughput_CCH_121 0
scalar SlicingScenario.node[18].appl rxTimeOfService_CCH_121 0
scalar SlicingScenario.node[18].appl txTimeOfService_CCH_121 0
scalar SlicingScenario.node[18].appl txPackets_SCH_41_121 0
scalar SlicingScenario.node[18].appl rxPackets_SCH_41_121 427
scalar SlicingScenario.node[18].appl rxNeighborPackets_SCH_41_121 16331
scalar SlicingScenario.node[18].appl meanDelay_SCH_41_121 67.723211906433
scalar SlicingScenario.node[18].appl meanJitter_SCH_41_121 0.186602691976
scalar SlicingScenario.node[18].appl meanRxPacketSize_SCH_41_121 1438
scalar SlicingScenario.node[18].appl meanTxPacketSize_SCH_41_121 0
scalar SlicingScenario.node[18].appl meanRxThroughput_SCH_41_121 170605.24316783
scalar SlicingScenario.node[18].appl meanTxThroughput_SCH_41_121 0
scalar SlicingScenario.node[18].appl rxTimeOfService_SCH_41_121 28.804273003297
scalar SlicingScenario.node[18].appl txTimeOfService_SCH_41_121 0
scalar SlicingScenario.node[18].nic.phy80211p busyTime 0.38726905263159
scalar SlicingScenario.node[18].nic.phy80211p ncollisions 0
scalar SlicingScenario.node[18].nic.phy80211p UnderSensitivityPackets 1720
scalar SlicingScenario.node[18].nic.mac1609_4 ReceivedUnicastPackets_CCH 0
scalar SlicingScenario.node[18].nic.mac1609_4 ReceivedBroadcasts_CCH 0
scalar SlicingScenario.node[18].nic.mac1609_4 SentPackets_CCH 0
scalar SlicingScenario.node[18].nic.mac1609_4 SentAcknowledgements_CCH 0
scalar SlicingScenario.node[18].nic.mac1609_4 SNIRLostPackets_CCH 0
scalar SlicingScenario.node[18].nic.mac1609_4 RXTXLostPackets_CCH 0
scalar SlicingScenario.node[18].nic.mac1609_4 TotalLostPackets_CCH 0
scalar SlicingScenario.node[18].nic.mac1609_4 DroppedPacketsInMac_CCH 0
scalar SlicingScenario.node[18].nic.mac1609_4 TooLittleTime_CCH 0
scalar SlicingScenario.node[18].nic.mac1609_4 TimesIntoBackoff_CCH 0
scalar SlicingScenario.node[18].nic.mac1609_4 SlotsBackoff_CCH 0
scalar SlicingScenario.node[18].nic.mac1609_4 NumInternalContention_CCH 0
scalar SlicingScenario.node[18].nic.mac1609_4 RemainingPacketsInEDCA_CCH 0
scalar SlicingScenario.node[18].nic.mac1609_4 totalBusyTime_CCH 0
scalar SlicingScenario.node[18].nic.mac1609_4 ReceivedUnicastPackets_SCH 0
scalar SlicingScenario.node[18].nic.mac1609_4 ReceivedBroadcasts_SCH 18604
scalar SlicingScenario.node[18].nic.mac1609_4 SentPackets_SCH 0
scalar SlicingScenario.node[18].nic.mac1609_4 SentAcknowledgements_SCH 0
scalar SlicingScenario.node[18].nic.mac1609_4 SNIRLostPackets_SCH 0
scalar SlicingScenario.node[18].nic.mac1609_4 RXTXLostPackets_SCH 0
scalar SlicingScenario.node[18].nic.mac1609_4 TotalLostPackets_SCH 0
scalar SlicingScenario.node[18].nic.mac1609_4 DroppedPacketsInMac_SCH 0
scalar SlicingScenario.node[18].nic.mac1609_4 TooLittleTime_SCH 0
scalar SlicingScenario.node[18].nic.mac1609_4 TimesIntoBackoff_SCH 0
scalar SlicingScenario.node[18].nic.mac1609_4 SlotsBackoff_SCH 0
scalar SlicingScenario.node[18].nic.mac1609_4 NumInternalContention_SCH 0
scalar SlicingScenario.node[18].nic.mac1609_4 RemainingPacketsInEDCA_SCH 0
scalar SlicingScenario.node[18].nic.mac1609_4 totalBusyTime_SCH 36.79056
scalar SlicingScenario.node[18].veinsmobility startTime 7
scalar SlicingScenario.node[18].veinsmobility totalTime 94
scalar SlicingScenario.node[18].veinsmobility stopTime 102
[...]
scalar SlicingScenario.rsu[0].appl meanRxPacketSize_SCH_41_1825 0
scalar SlicingScenario.rsu[0].appl meanTxPacketSize_SCH_41_1825 0
scalar SlicingScenario.rsu[0].appl meanRxThroughput_SCH_41_1825 0
scalar SlicingScenario.rsu[0].appl meanTxThroughput_SCH_41_1825 0
scalar SlicingScenario.rsu[0].appl rxTimeOfService_SCH_41_1825 0
scalar SlicingScenario.rsu[0].appl txTimeOfService_SCH_41_1825 0
scalar SlicingScenario.rsu[0].appl txPackets_SCH_41_1831 0
scalar SlicingScenario.rsu[0].appl rxPackets_SCH_41_1831 0
scalar SlicingScenario.rsu[0].appl rxNeighborPackets_SCH_41_1831 0
scalar SlicingScenario.rsu[0].appl meanDelay_SCH_41_1831 0
scalar SlicingScenario.rsu[0].appl meanJitter_SCH_41_1831 0
scalar SlicingScenario.rsu[0].appl meanRxPacketSize_SCH_41_1831 0
scalar SlicingScenario.rsu[0].appl meanTxPacketSize_SCH_41_1831 0
scalar SlicingScenario.rsu[0].appl meanRxThroughput_SCH_41_1831 0
scalar SlicingScenario.rsu[0].appl meanTxThroughput_SCH_41_1831 0
scalar SlicingScenario.rsu[0].appl rxTimeOfService_SCH_41_1831 0
scalar SlicingScenario.rsu[0].appl txTimeOfService_SCH_41_1831 0
scalar SlicingScenario.rsu[0].appl txPackets_SCH_41_1849 0
scalar SlicingScenario.rsu[0].appl rxPackets_SCH_41_1849 0
scalar SlicingScenario.rsu[0].appl rxNeighborPackets_SCH_41_1849 0
scalar SlicingScenario.rsu[0].appl meanDelay_SCH_41_1849 0
scalar SlicingScenario.rsu[0].appl meanJitter_SCH_41_1849 0
scalar SlicingScenario.rsu[0].appl meanRxPacketSize_SCH_41_1849 0
scalar SlicingScenario.rsu[0].appl meanTxPacketSize_SCH_41_1849 0
scalar SlicingScenario.rsu[0].appl meanRxThroughput_SCH_41_1849 0
scalar SlicingScenario.rsu[0].appl meanTxThroughput_SCH_41_1849 0
scalar SlicingScenario.rsu[0].appl rxTimeOfService_SCH_41_1849 0
scalar SlicingScenario.rsu[0].appl txTimeOfService_SCH_41_1849 0
scalar SlicingScenario.rsu[0].appl txPackets_SCH_41_1861 0
scalar SlicingScenario.rsu[0].appl rxPackets_SCH_41_1861 0
scalar SlicingScenario.rsu[0].appl rxNeighborPackets_SCH_41_1861 0
scalar SlicingScenario.rsu[0].appl meanDelay_SCH_41_1861 0
scalar SlicingScenario.rsu[0].appl meanJitter_SCH_41_1861 0
scalar SlicingScenario.rsu[0].appl meanRxPacketSize_SCH_41_1861 0
scalar SlicingScenario.rsu[0].appl meanTxPacketSize_SCH_41_1861 0
scalar SlicingScenario.rsu[0].appl meanRxThroughput_SCH_41_1861 0
scalar SlicingScenario.rsu[0].appl meanTxThroughput_SCH_41_1861 0
scalar SlicingScenario.rsu[0].appl rxTimeOfService_SCH_41_1861 0
scalar SlicingScenario.rsu[0].appl txTimeOfService_SCH_41_1861 0
scalar SlicingScenario.rsu[0].appl txPackets_SCH_41_1891 0
scalar SlicingScenario.rsu[0].appl rxPackets_SCH_41_1891 0
scalar SlicingScenario.rsu[0].appl rxNeighborPackets_SCH_41_1891 0
scalar SlicingScenario.rsu[0].appl meanDelay_SCH_41_1891 0
scalar SlicingScenario.rsu[0].appl meanJitter_SCH_41_1891 0
scalar SlicingScenario.rsu[0].appl meanRxPacketSize_SCH_41_1891 0
scalar SlicingScenario.rsu[0].appl meanTxPacketSize_SCH_41_1891 0
scalar SlicingScenario.rsu[0].appl meanRxThroughput_SCH_41_1891 0
scalar SlicingScenario.rsu[0].appl meanTxThroughput_SCH_41_1891 0
scalar SlicingScenario.rsu[0].appl rxTimeOfService_SCH_41_1891 0
scalar SlicingScenario.rsu[0].appl txTimeOfService_SCH_41_1891 0
scalar SlicingScenario.rsu[0].appl txPackets_SCH_41_1897 0
scalar SlicingScenario.rsu[0].appl rxPackets_SCH_41_1897 0
scalar SlicingScenario.rsu[0].appl rxNeighborPackets_SCH_41_1897 0
scalar SlicingScenario.rsu[0].appl meanDelay_SCH_41_1897 0
scalar SlicingScenario.rsu[0].appl meanJitter_SCH_41_1897 0
scalar SlicingScenario.rsu[0].appl meanRxPacketSize_SCH_41_1897 0
scalar SlicingScenario.rsu[0].appl meanTxPacketSize_SCH_41_1897 0
scalar SlicingScenario.rsu[0].appl meanRxThroughput_SCH_41_1897 0
scalar SlicingScenario.rsu[0].appl meanTxThroughput_SCH_41_1897 0
scalar SlicingScenario.rsu[0].appl rxTimeOfService_SCH_41_1897 0
scalar SlicingScenario.rsu[0].appl txTimeOfService_SCH_41_1897 0
scalar SlicingScenario.rsu[0].appl txPackets_SCH_41_1915 0
scalar SlicingScenario.rsu[0].appl rxPackets_SCH_41_1915 0
scalar SlicingScenario.rsu[0].appl rxNeighborPackets_SCH_41_1915 0
scalar SlicingScenario.rsu[0].appl meanDelay_SCH_41_1915 0
scalar SlicingScenario.rsu[0].appl meanJitter_SCH_41_1915 0
scalar SlicingScenario.rsu[0].appl meanRxPacketSize_SCH_41_1915 0
scalar SlicingScenario.rsu[0].appl meanTxPacketSize_SCH_41_1915 0
scalar SlicingScenario.rsu[0].appl meanRxThroughput_SCH_41_1915 0
scalar SlicingScenario.rsu[0].appl meanTxThroughput_SCH_41_1915 0
scalar SlicingScenario.rsu[0].appl rxTimeOfService_SCH_41_1915 0
scalar SlicingScenario.rsu[0].appl txTimeOfService_SCH_41_1915 0
scalar SlicingScenario.rsu[0].appl txPackets_SCH_41_1939 0
scalar SlicingScenario.rsu[0].appl rxPackets_SCH_41_1939 0
scalar SlicingScenario.rsu[0].appl rxNeighborPackets_SCH_41_1939 0
scalar SlicingScenario.rsu[0].appl meanDelay_SCH_41_1939 0
scalar SlicingScenario.rsu[0].appl meanJitter_SCH_41_1939 0
scalar SlicingScenario.rsu[0].appl meanRxPacketSize_SCH_41_1939 0
scalar SlicingScenario.rsu[0].appl meanTxPacketSize_SCH_41_1939 0
scalar SlicingScenario.rsu[0].appl meanRxThroughput_SCH_41_1939 0
scalar SlicingScenario.rsu[0].appl meanTxThroughput_SCH_41_1939 0
scalar SlicingScenario.rsu[0].appl rxTimeOfService_SCH_41_1939 0
scalar SlicingScenario.rsu[0].appl txTimeOfService_SCH_41_1939 0
scalar SlicingScenario.rsu[0].appl txPackets_SCH_41_1957 0
scalar SlicingScenario.rsu[0].appl rxPackets_SCH_41_1957 0
scalar SlicingScenario.rsu[0].appl rxNeighborPackets_SCH_41_1957 0
scalar SlicingScenario.rsu[0].appl meanDelay_SCH_41_1957 0
scalar SlicingScenario.rsu[0].appl meanJitter_SCH_41_1957 0
scalar SlicingScenario.rsu[0].appl meanRxPacketSize_SCH_41_1957 0
scalar SlicingScenario.rsu[0].appl meanTxPacketSize_SCH_41_1957 0
scalar SlicingScenario.rsu[0].appl meanRxThroughput_SCH_41_1957 0
scalar SlicingScenario.rsu[0].appl meanTxThroughput_SCH_41_1957 0
scalar SlicingScenario.rsu[0].appl rxTimeOfService_SCH_41_1957 0
scalar SlicingScenario.rsu[0].appl txTimeOfService_SCH_41_1957 0
scalar SlicingScenario.rsu[0].appl txPackets_SCH_41_1963 0
scalar SlicingScenario.rsu[0].appl rxPackets_SCH_41_1963 0
scalar SlicingScenario.rsu[0].appl rxNeighborPackets_SCH_41_1963 0
scalar SlicingScenario.rsu[0].appl meanDelay_SCH_41_1963 0
scalar SlicingScenario.rsu[0].appl meanJitter_SCH_41_1963 0
scalar SlicingScenario.rsu[0].appl meanRxPacketSize_SCH_41_1963 0
scalar SlicingScenario.rsu[0].appl meanTxPacketSize_SCH_41_1963 0
scalar SlicingScenario.rsu[0].appl meanRxThroughput_SCH_41_1963 0
scalar SlicingScenario.rsu[0].appl meanTxThroughput_SCH_41_1963 0
scalar SlicingScenario.rsu[0].appl rxTimeOfService_SCH_41_1963 0
scalar SlicingScenario.rsu[0].appl txTimeOfService_SCH_41_1963 0
scalar SlicingScenario.rsu[0].appl txPackets_SCH_41_1981 0
scalar SlicingScenario.rsu[0].appl rxPackets_SCH_41_1981 0
scalar SlicingScenario.rsu[0].appl rxNeighborPackets_SCH_41_1981 0
scalar SlicingScenario.rsu[0].appl meanDelay_SCH_41_1981 0
scalar SlicingScenario.rsu[0].appl meanJitter_SCH_41_1981 0
scalar SlicingScenario.rsu[0].appl meanRxPacketSize_SCH_41_1981 0
scalar SlicingScenario.rsu[0].appl meanTxPacketSize_SCH_41_1981 0
scalar SlicingScenario.rsu[0].appl meanRxThroughput_SCH_41_1981 0
scalar SlicingScenario.rsu[0].appl meanTxThroughput_SCH_41_1981 0
scalar SlicingScenario.rsu[0].appl rxTimeOfService_SCH_41_1981 0
scalar SlicingScenario.rsu[0].appl txTimeOfService_SCH_41_1981 0
scalar SlicingScenario.rsu[0].appl txPackets_SCH_41_1999 0
scalar SlicingScenario.rsu[0].appl rxPackets_SCH_41_1999 0
scalar SlicingScenario.rsu[0].appl rxNeighborPackets_SCH_41_1999 0
scalar SlicingScenario.rsu[0].appl meanDelay_SCH_41_1999 0
scalar SlicingScenario.rsu[0].appl meanJitter_SCH_41_1999 0
scalar SlicingScenario.rsu[0].appl meanRxPacketSize_SCH_41_1999 0
scalar SlicingScenario.rsu[0].appl meanTxPacketSize_SCH_41_1999 0
scalar SlicingScenario.rsu[0].appl meanRxThroughput_SCH_41_1999 0
scalar SlicingScenario.rsu[0].appl meanTxThroughput_SCH_41_1999 0
scalar SlicingScenario.rsu[0].appl rxTimeOfService_SCH_41_1999 0
scalar SlicingScenario.rsu[0].appl txTimeOfService_SCH_41_1999 0
scalar SlicingScenario.rsu[0].appl txPackets_SCH_41_2023 0
scalar SlicingScenario.rsu[0].appl rxPackets_SCH_41_2023 0
scalar SlicingScenario.rsu[0].appl rxNeighborPackets_SCH_41_2023 0
scalar SlicingScenario.rsu[0].appl meanDelay_SCH_41_2023 0
scalar SlicingScenario.rsu[0].appl meanJitter_SCH_41_2023 0
scalar SlicingScenario.rsu[0].appl meanRxPacketSize_SCH_41_2023 0
scalar SlicingScenario.rsu[0].appl meanTxPacketSize_SCH_41_2023 0
scalar SlicingScenario.rsu[0].appl meanRxThroughput_SCH_41_2023 0
scalar SlicingScenario.rsu[0].appl meanTxThroughput_SCH_41_2023 0
scalar SlicingScenario.rsu[0].appl rxTimeOfService_SCH_41_2023 0
scalar SlicingScenario.rsu[0].appl txTimeOfService_SCH_41_2023 0
scalar SlicingScenario.rsu[0].appl txPackets_SCH_41_2059 0
scalar SlicingScenario.rsu[0].appl rxPackets_SCH_41_2059 0
scalar SlicingScenario.rsu[0].appl rxNeighborPackets_SCH_41_2059 0
scalar SlicingScenario.rsu[0].appl meanDelay_SCH_41_2059 0
scalar SlicingScenario.rsu[0].appl meanJitter_SCH_41_2059 0
scalar SlicingScenario.rsu[0].appl meanRxPacketSize_SCH_41_2059 0
scalar SlicingScenario.rsu[0].appl meanTxPacketSize_SCH_41_2059 0
scalar SlicingScenario.rsu[0].appl meanRxThroughput_SCH_41_2059 0
scalar SlicingScenario.rsu[0].appl meanTxThroughput_SCH_41_2059 0
scalar SlicingScenario.rsu[0].appl rxTimeOfService_SCH_41_2059 0
scalar SlicingScenario.rsu[0].appl txTimeOfService_SCH_41_2059 0
scalar SlicingScenario.rsu[0].appl txPackets_SCH_41_2065 0
scalar SlicingScenario.rsu[0].appl rxPackets_SCH_41_2065 0
scalar SlicingScenario.rsu[0].appl rxNeighborPackets_SCH_41_2065 0
scalar SlicingScenario.rsu[0].appl meanDelay_SCH_41_2065 0
scalar SlicingScenario.rsu[0].appl meanJitter_SCH_41_2065 0
scalar SlicingScenario.rsu[0].appl meanRxPacketSize_SCH_41_2065 0
scalar SlicingScenario.rsu[0].appl meanTxPacketSize_SCH_41_2065 0
scalar SlicingScenario.rsu[0].appl meanRxThroughput_SCH_41_2065 0
scalar SlicingScenario.rsu[0].appl meanTxThroughput_SCH_41_2065 0
scalar SlicingScenario.rsu[0].appl rxTimeOfService_SCH_41_2065 0
scalar SlicingScenario.rsu[0].appl txTimeOfService_SCH_41_2065 0
scalar SlicingScenario.rsu[0].appl txPackets_SCH_41_2071 0
scalar SlicingScenario.rsu[0].appl rxPackets_SCH_41_2071 0
scalar SlicingScenario.rsu[0].appl rxNeighborPackets_SCH_41_2071 0
scalar SlicingScenario.rsu[0].appl meanDelay_SCH_41_2071 0
scalar SlicingScenario.rsu[0].appl meanJitter_SCH_41_2071 0
scalar SlicingScenario.rsu[0].appl meanRxPacketSize_SCH_41_2071 0
scalar SlicingScenario.rsu[0].appl meanTxPacketSize_SCH_41_2071 0
scalar SlicingScenario.rsu[0].appl meanRxThroughput_SCH_41_2071 0
scalar SlicingScenario.rsu[0].appl meanTxThroughput_SCH_41_2071 0
scalar SlicingScenario.rsu[0].appl rxTimeOfService_SCH_41_2071 0
scalar SlicingScenario.rsu[0].appl txTimeOfService_SCH_41_2071 0
scalar SlicingScenario.rsu[0].appl txPackets_SCH_41_2089 0
scalar SlicingScenario.rsu[0].appl rxPackets_SCH_41_2089 0
scalar SlicingScenario.rsu[0].appl rxNeighborPackets_SCH_41_2089 0
scalar SlicingScenario.rsu[0].appl meanDelay_SCH_41_2089 0
scalar SlicingScenario.rsu[0].appl meanJitter_SCH_41_2089 0
scalar SlicingScenario.rsu[0].appl meanRxPacketSize_SCH_41_2089 0
scalar SlicingScenario.rsu[0].appl meanTxPacketSize_SCH_41_2089 0
scalar SlicingScenario.rsu[0].appl meanRxThroughput_SCH_41_2089 0
scalar SlicingScenario.rsu[0].appl meanTxThroughput_SCH_41_2089 0
scalar SlicingScenario.rsu[0].appl rxTimeOfService_SCH_41_2089 0
scalar SlicingScenario.rsu[0].appl txTimeOfService_SCH_41_2089 0
scalar SlicingScenario.rsu[0].appl txPackets_SCH_41_2125 0
scalar SlicingScenario.rsu[0].appl rxPackets_SCH_41_2125 0
scalar SlicingScenario.rsu[0].appl rxNeighborPackets_SCH_41_2125 0
scalar SlicingScenario.rsu[0].appl meanDelay_SCH_41_2125 0
scalar SlicingScenario.rsu[0].appl meanJitter_SCH_41_2125 0
scalar SlicingScenario.rsu[0].appl meanRxPacketSize_SCH_41_2125 0
scalar SlicingScenario.rsu[0].appl meanTxPacketSize_SCH_41_2125 0
scalar SlicingScenario.rsu[0].appl meanRxThroughput_SCH_41_2125 0
scalar SlicingScenario.rsu[0].appl meanTxThroughput_SCH_41_2125 0
scalar SlicingScenario.rsu[0].appl rxTimeOfService_SCH_41_2125 0
scalar SlicingScenario.rsu[0].appl txTimeOfService_SCH_41_2125 0
scalar SlicingScenario.rsu[0].appl txPackets_SCH_41_2131 0
scalar SlicingScenario.rsu[0].appl rxPackets_SCH_41_2131 0
scalar SlicingScenario.rsu[0].appl rxNeighborPackets_SCH_41_2131 0
scalar SlicingScenario.rsu[0].appl meanDelay_SCH_41_2131 0
scalar SlicingScenario.rsu[0].appl meanJitter_SCH_41_2131 0
scalar SlicingScenario.rsu[0].appl meanRxPacketSize_SCH_41_2131 0
scalar SlicingScenario.rsu[0].appl meanTxPacketSize_SCH_41_2131 0
scalar SlicingScenario.rsu[0].appl meanRxThroughput_SCH_41_2131 0
scalar SlicingScenario.rsu[0].appl meanTxThroughput_SCH_41_2131 0
scalar SlicingScenario.rsu[0].appl rxTimeOfService_SCH_41_2131 0
scalar SlicingScenario.rsu[0].appl txTimeOfService_SCH_41_2131 0
scalar SlicingScenario.rsu[0].appl txPackets_SCH_41_2149 0
scalar SlicingScenario.rsu[0].appl rxPackets_SCH_41_2149 0
scalar SlicingScenario.rsu[0].appl rxNeighborPackets_SCH_41_2149 0
scalar SlicingScenario.rsu[0].appl meanDelay_SCH_41_2149 0
scalar SlicingScenario.rsu[0].appl meanJitter_SCH_41_2149 0
scalar SlicingScenario.rsu[0].appl meanRxPacketSize_SCH_41_2149 0
scalar SlicingScenario.rsu[0].appl meanTxPacketSize_SCH_41_2149 0
scalar SlicingScenario.rsu[0].appl meanRxThroughput_SCH_41_2149 0
scalar SlicingScenario.rsu[0].appl meanTxThroughput_SCH_41_2149 0
scalar SlicingScenario.rsu[0].appl rxTimeOfService_SCH_41_2149 0
scalar SlicingScenario.rsu[0].appl txTimeOfService_SCH_41_2149 0
scalar SlicingScenario.rsu[0].appl txPackets_SCH_41_2167 0
scalar SlicingScenario.rsu[0].appl rxPackets_SCH_41_2167 0
scalar SlicingScenario.rsu[0].appl rxNeighborPackets_SCH_41_2167 0
scalar SlicingScenario.rsu[0].appl meanDelay_SCH_41_2167 0
scalar SlicingScenario.rsu[0].appl meanJitter_SCH_41_2167 0
scalar SlicingScenario.rsu[0].appl meanRxPacketSize_SCH_41_2167 0
scalar SlicingScenario.rsu[0].appl meanTxPacketSize_SCH_41_2167 0
scalar SlicingScenario.rsu[0].appl meanRxThroughput_SCH_41_2167 0
scalar SlicingScenario.rsu[0].appl meanTxThroughput_SCH_41_2167 0
scalar SlicingScenario.rsu[0].appl rxTimeOfService_SCH_41_2167 0
scalar SlicingScenario.rsu[0].appl txTimeOfService_SCH_41_2167 0
scalar SlicingScenario.rsu[0].appl txPackets_SCH_41_2173 0
scalar SlicingScenario.rsu[0].appl rxPackets_SCH_41_2173 0
scalar SlicingScenario.rsu[0].appl rxNeighborPackets_SCH_41_2173 0
scalar SlicingScenario.rsu[0].appl meanDelay_SCH_41_2173 0
scalar SlicingScenario.rsu[0].appl meanJitter_SCH_41_2173 0
scalar SlicingScenario.rsu[0].appl meanRxPacketSize_SCH_41_2173 0
scalar SlicingScenario.rsu[0].appl meanTxPacketSize_SCH_41_2173 0
scalar SlicingScenario.rsu[0].appl meanRxThroughput_SCH_41_2173 0
scalar SlicingScenario.rsu[0].appl meanTxThroughput_SCH_41_2173 0
scalar SlicingScenario.rsu[0].appl rxTimeOfService_SCH_41_2173 0
scalar SlicingScenario.rsu[0].appl txTimeOfService_SCH_41_2173 0
scalar SlicingScenario.rsu[0].appl txPackets_SCH_41_2179 0
scalar SlicingScenario.rsu[0].appl rxPackets_SCH_41_2179 0
scalar SlicingScenario.rsu[0].appl rxNeighborPackets_SCH_41_2179 0
scalar SlicingScenario.rsu[0].appl meanDelay_SCH_41_2179 0
scalar SlicingScenario.rsu[0].appl meanJitter_SCH_41_2179 0
scalar SlicingScenario.rsu[0].appl meanRxPacketSize_SCH_41_2179 0
scalar SlicingScenario.rsu[0].appl meanTxPacketSize_SCH_41_2179 0
scalar SlicingScenario.rsu[0].appl meanRxThroughput_SCH_41_2179 0
scalar SlicingScenario.rsu[0].appl meanTxThroughput_SCH_41_2179 0
scalar SlicingScenario.rsu[0].appl rxTimeOfService_SCH_41_2179 0
scalar SlicingScenario.rsu[0].appl txTimeOfService_SCH_41_2179 0
scalar SlicingScenario.rsu[0].appl txPackets_SCH_41_2185 0
scalar SlicingScenario.rsu[0].appl rxPackets_SCH_41_2185 0
scalar SlicingScenario.rsu[0].appl rxNeighborPackets_SCH_41_2185 0
scalar SlicingScenario.rsu[0].appl meanDelay_SCH_41_2185 0
scalar SlicingScenario.rsu[0].appl meanJitter_SCH_41_2185 0
scalar SlicingScenario.rsu[0].appl meanRxPacketSize_SCH_41_2185 0
scalar SlicingScenario.rsu[0].appl meanTxPacketSize_SCH_41_2185 0
scalar SlicingScenario.rsu[0].appl meanRxThroughput_SCH_41_2185 0
scalar SlicingScenario.rsu[0].appl meanTxThroughput_SCH_41_2185 0
scalar SlicingScenario.rsu[0].appl rxTimeOfService_SCH_41_2185 0
scalar SlicingScenario.rsu[0].appl txTimeOfService_SCH_41_2185 0
scalar SlicingScenario.rsu[0].appl txPackets_SCH_41_2191 0
scalar SlicingScenario.rsu[0].appl rxPackets_SCH_41_2191 0
scalar SlicingScenario.rsu[0].appl rxNeighborPackets_SCH_41_2191 0
scalar SlicingScenario.rsu[0].appl meanDelay_SCH_41_2191 0
scalar SlicingScenario.rsu[0].appl meanJitter_SCH_41_2191 0
scalar SlicingScenario.rsu[0].appl meanRxPacketSize_SCH_41_2191 0
scalar SlicingScenario.rsu[0].appl meanTxPacketSize_SCH_41_2191 0
scalar SlicingScenario.rsu[0].appl meanRxThroughput_SCH_41_2191 0
scalar SlicingScenario.rsu[0].appl meanTxThroughput_SCH_41_2191 0
scalar SlicingScenario.rsu[0].appl rxTimeOfService_SCH_41_2191 0
scalar SlicingScenario.rsu[0].appl txTimeOfService_SCH_41_2191 0
scalar SlicingScenario.rsu[0].appl txPackets_SCH_41_2209 0
scalar SlicingScenario.rsu[0].appl rxPackets_SCH_41_2209 0
scalar SlicingScenario.rsu[0].appl rxNeighborPackets_SCH_41_2209 0
scalar SlicingScenario.rsu[0].appl meanDelay_SCH_41_2209 0
scalar SlicingScenario.rsu[0].appl meanJitter_SCH_41_2209 0
scalar SlicingScenario.rsu[0].appl meanRxPacketSize_SCH_41_2209 0
scalar SlicingScenario.rsu[0].appl meanTxPacketSize_SCH_41_2209 0
scalar SlicingScenario.rsu[0].appl meanRxThroughput_SCH_41_2209 0
scalar SlicingScenario.rsu[0].appl meanTxThroughput_SCH_41_2209 0
scalar SlicingScenario.rsu[0].appl rxTimeOfService_SCH_41_2209 0
scalar SlicingScenario.rsu[0].appl txTimeOfService_SCH_41_2209 0
scalar SlicingScenario.rsu[0].nic.phy80211p busyTime 0
scalar SlicingScenario.rsu[0].nic.phy80211p ncollisions 0
scalar SlicingScenario.rsu[0].nic.phy80211p UnderSensitivityPackets 0
scalar SlicingScenario.rsu[0].nic.mac1609_4 ReceivedUnicastPackets_CCH 0
scalar SlicingScenario.rsu[0].nic.mac1609_4 ReceivedBroadcasts_CCH 0
scalar SlicingScenario.rsu[0].nic.mac1609_4 SentPackets_CCH 0
scalar SlicingScenario.rsu[0].nic.mac1609_4 SentAcknowledgements_CCH 0
scalar SlicingScenario.rsu[0].nic.mac1609_4 SNIRLostPackets_CCH 0
scalar SlicingScenario.rsu[0].nic.mac1609_4 RXTXLostPackets_CCH 0
scalar SlicingScenario.rsu[0].nic.mac1609_4 TotalLostPackets_CCH 0
scalar SlicingScenario.rsu[0].nic.mac1609_4 DroppedPacketsInMac_CCH 0
scalar SlicingScenario.rsu[0].nic.mac1609_4 TooLittleTime_CCH 0
scalar SlicingScenario.rsu[0].nic.mac1609_4 TimesIntoBackoff_CCH 0
scalar SlicingScenario.rsu[0].nic.mac1609_4 SlotsBackoff_CCH 0
scalar SlicingScenario.rsu[0].nic.mac1609_4 NumInternalContention_CCH 0
scalar SlicingScenario.rsu[0].nic.mac1609_4 RemainingPacketsInEDCA_CCH 0
scalar SlicingScenario.rsu[0].nic.mac1609_4 totalBusyTime_CCH 0
scalar SlicingScenario.rsu[0].nic.mac1609_4 ReceivedUnicastPackets_SCH 0
scalar SlicingScenario.rsu[0].nic.mac1609_4 ReceivedBroadcasts_SCH 0
scalar SlicingScenario.rsu[0].nic.mac1609_4 SentPackets_SCH 62841
scalar SlicingScenario.rsu[0].nic.mac1609_4 SentAcknowledgements_SCH 0
scalar SlicingScenario.rsu[0].nic.mac1609_4 SNIRLostPackets_SCH 0
scalar SlicingScenario.rsu[0].nic.mac1609_4 RXTXLostPackets_SCH 0
scalar SlicingScenario.rsu[0].nic.mac1609_4 TotalLostPackets_SCH 0
scalar SlicingScenario.rsu[0].nic.mac1609_4 DroppedPacketsInMac_SCH 0
scalar SlicingScenario.rsu[0].nic.mac1609_4 TooLittleTime_SCH 43496
scalar SlicingScenario.rsu[0].nic.mac1609_4 TimesIntoBackoff_SCH 65209
scalar SlicingScenario.rsu[0].nic.mac1609_4 SlotsBackoff_SCH 219987
scalar SlicingScenario.rsu[0].nic.mac1609_4 NumInternalContention_SCH 0
scalar SlicingScenario.rsu[0].nic.mac1609_4 RemainingPacketsInEDCA_SCH 585848
scalar SlicingScenario.rsu[0].nic.mac1609_4 totalBusyTime_SCH 124.297208

