version 2
run General-294-20190223-14:37:40-12748
attr configname General
attr datetime 20190223-14:37:40
attr experiment General
attr inifile omnetpp.ini
attr iterationvars "$vehicles=80, $msgSizeA=1500B, $serviceMsgInterval=0.4s"
attr iterationvarsf vehicles=80,msgSizeA=1500B,serviceMsgInterval=0.4s-
attr measurement "$vehicles=80, $msgSizeA=1500B, $serviceMsgInterval=0.4s"
attr network com.liborio.slicing.SlicingScenario
attr processid 12748
attr repetition 4
attr replication #4
attr resultdir results
attr runnumber 294
attr seedset 4
itervar msgSizeA 1500B
itervar serviceMsgInterval 0.4s
itervar vehicles 80
param **.debug false
param **.coreDebug false
param *.playgroundSizeX 1200m
param *.playgroundSizeY 1200m
param *.playgroundSizeZ 50m
param *.annotations.draw true
param *.manager.updateInterval 1s
param *.manager.host "\"localhost\""
param *.manager.port 9999
param *.manager.autoShutdown true
param *.manager.launchConfig "xmldoc(\"highway-\"+string(80)+\".launchd.xml\")"
param *.connectionManager.sendDirect true
param *.connectionManager.maxInterfDist 2600m
param *.connectionManager.drawMaxIntfDist false
param *.rsu[*].applType "\"RSUApp\""
param *.rsu[*].appl.headerLength "80 bit"
param *.rsu[*].appl.sendBeacons false
param *.rsu[*].appl.dataOnSch true
param *.rsu[*].appl.beaconInterval 1s
param *.rsu[*].appl.beaconUserPriority 7
param *.rsu[*].appl.dataUserPriority 5
param *.rsu[*].appl.entMsgADataLengthBytes 1500B
param *.rsu[*].appl.entMsgAUserPriority 4
param *.rsu[*].appl.entMsgAInterval 0.4s
param *.rsu[*].appl.entMsgBDataLengthBytes 1500B
param *.rsu[*].appl.entMsgBUserPriority 4
param *.rsu[*].appl.entMsgBInterval 0.4s
param *.rsu[*].nic.mac1609_4.useServiceChannel true
param *.rsu[*].nic.mac1609_4.txPower 20mW
param *.rsu[*].nic.mac1609_4.bitrate 6Mbps
param *.rsu[*].nic.phy80211p.sensitivity -90.00dBm
param *.rsu[0].mobility.x 515.0
param *.rsu[0].mobility.y 25.0
param *.rsu[0].mobility.z 3
param *.node[*].applType "\"VehApp\""
param *.node[*].appl.headerLength "80 bit"
param *.node[*].appl.sendBeacons false
param *.node[*].appl.dataOnSch true
param *.node[*].appl.beaconInterval 1s
param *.node[*].appl.wsaInterval 1s
param *.node[*].appl.entMsgADataLengthBits 1500B
param *.node[*].appl.entMsgAUserPriority 4
param *.node[*].appl.entMsgAInterval 0.4s
param *.node[*].appl.entMsgBDataLengthBits 1500B
param *.node[*].appl.entMsgBUserPriority 4
param *.node[*].appl.entMsgBInterval 0.4s
param *.node[*].nic.mac1609_4.useServiceChannel true
param *.node[*].nic.mac1609_4.txPower 20mW
param *.node[*].nic.mac1609_4.bitrate 6Mbps
param *.node[*].nic.phy80211p.sensitivity -90.00dBm
param *.node[*].veinsmobilityType.debug true
param *.node[*].veinsmobility.x 0
param *.node[*].veinsmobility.y 0
param *.node[*].veinsmobility.z 1.895
param *.**.nic.phy80211p.useThermalNoise true
param *.**.nic.phy80211p.thermalNoise -110dBm
param *.**.nic.phy80211p.decider "xmldoc(\"config.xml\")"
param *.**.nic.phy80211p.analogueModels "xmldoc(\"config.xml\")"
param *.**.nic.phy80211p.usePropagationDelay true
param *.**.nic.phy80211p.antenna "xmldoc(\"antenna.xml\", \"/root/Antenna[@id='monopole']\")"
param *.**.nic.phy80211p.collectCollisionStatistics true
param *.**.nic.phy80211p.allowTxDuringRx false

scalar SlicingScenario.node[0].appl txPackets_13 0
scalar SlicingScenario.node[0].appl rxPackets_13 0
scalar SlicingScenario.node[0].appl rxNeighborPackets_13 0
scalar SlicingScenario.node[0].appl meanDelay_13 0
scalar SlicingScenario.node[0].appl meanJitter_13 0
scalar SlicingScenario.node[0].appl meanRxPacketSize_13 0
scalar SlicingScenario.node[0].appl meanTxPacketSize_13 0
scalar SlicingScenario.node[0].appl meanRxThroughput_13 0
scalar SlicingScenario.node[0].appl meanTxThroughput_13 0
scalar SlicingScenario.node[0].appl rxTimeOfService_13 0
scalar SlicingScenario.node[0].appl txTimeOfService_13 0
scalar SlicingScenario.node[0].appl txPackets_40_13 0
scalar SlicingScenario.node[0].appl rxPackets_40_13 207
scalar SlicingScenario.node[0].appl rxNeighborPackets_40_13 1945
scalar SlicingScenario.node[0].appl meanDelay_40_13 0.00314163434
scalar SlicingScenario.node[0].appl meanJitter_40_13 4.8143672e-05
scalar SlicingScenario.node[0].appl meanRxPacketSize_40_13 1510
scalar SlicingScenario.node[0].appl meanTxPacketSize_40_13 0
scalar SlicingScenario.node[0].appl meanRxThroughput_40_13 30345.703729614
scalar SlicingScenario.node[0].appl meanTxThroughput_40_13 0
scalar SlicingScenario.node[0].appl rxTimeOfService_40_13 82.4024389838
scalar SlicingScenario.node[0].appl txTimeOfService_40_13 0
scalar SlicingScenario.node[0].nic.phy80211p busyTime 0.1049947826087
scalar SlicingScenario.node[0].nic.phy80211p ncollisions 0
scalar SlicingScenario.node[0].nic.phy80211p UnderSensitivityPackets 568
scalar SlicingScenario.node[0].nic.mac1609_4 ReceivedUnicastPackets_CCH 0
scalar SlicingScenario.node[0].nic.mac1609_4 ReceivedBroadcasts_CCH 0
scalar SlicingScenario.node[0].nic.mac1609_4 SentPackets_CCH 0
scalar SlicingScenario.node[0].nic.mac1609_4 SentAcknowledgements_CCH 0
scalar SlicingScenario.node[0].nic.mac1609_4 SNIRLostPackets_CCH 0
scalar SlicingScenario.node[0].nic.mac1609_4 RXTXLostPackets_CCH 0
scalar SlicingScenario.node[0].nic.mac1609_4 TotalLostPackets_CCH 0
scalar SlicingScenario.node[0].nic.mac1609_4 DroppedPacketsInMac_CCH 0
scalar SlicingScenario.node[0].nic.mac1609_4 TooLittleTime_CCH 0
scalar SlicingScenario.node[0].nic.mac1609_4 TimesIntoBackoff_CCH 0
scalar SlicingScenario.node[0].nic.mac1609_4 SlotsBackoff_CCH 0
scalar SlicingScenario.node[0].nic.mac1609_4 NumInternalContention_CCH 0
scalar SlicingScenario.node[0].nic.mac1609_4 RemainingPacketsInEDCA_CCH 0
scalar SlicingScenario.node[0].nic.mac1609_4 totalBusyTime_CCH 0
scalar SlicingScenario.node[0].nic.mac1609_4 ReceivedUnicastPackets_SCH 0
scalar SlicingScenario.node[0].nic.mac1609_4 ReceivedBroadcasts_SCH 4680
scalar SlicingScenario.node[0].nic.mac1609_4 SentPackets_SCH 0
scalar SlicingScenario.node[0].nic.mac1609_4 SentAcknowledgements_SCH 0
scalar SlicingScenario.node[0].nic.mac1609_4 SNIRLostPackets_SCH 0
scalar SlicingScenario.node[0].nic.mac1609_4 RXTXLostPackets_SCH 0
scalar SlicingScenario.node[0].nic.mac1609_4 TotalLostPackets_SCH 0
scalar SlicingScenario.node[0].nic.mac1609_4 DroppedPacketsInMac_SCH 0
scalar SlicingScenario.node[0].nic.mac1609_4 TooLittleTime_SCH 0
scalar SlicingScenario.node[0].nic.mac1609_4 TimesIntoBackoff_SCH 0
scalar SlicingScenario.node[0].nic.mac1609_4 SlotsBackoff_SCH 0
scalar SlicingScenario.node[0].nic.mac1609_4 NumInternalContention_SCH 0
scalar SlicingScenario.node[0].nic.mac1609_4 RemainingPacketsInEDCA_SCH 0
scalar SlicingScenario.node[0].nic.mac1609_4 totalBusyTime_SCH 9.65952
scalar SlicingScenario.node[0].veinsmobility startTime 1
scalar SlicingScenario.node[0].veinsmobility totalTime 91
scalar SlicingScenario.node[0].veinsmobility stopTime 93
scalar SlicingScenario.node[0].veinsmobility minSpeed 10.612860982204
scalar SlicingScenario.node[0].veinsmobility maxSpeed 11.108874815064
scalar SlicingScenario.node[0].veinsmobility totalDistance 978.63790761454
scalar SlicingScenario.node[0].veinsmobility totalCO2Emission 157.70319811462
scalar SlicingScenario.node[1].appl txPackets_19 0
scalar SlicingScenario.node[1].appl rxPackets_19 0
scalar SlicingScenario.node[1].appl rxNeighborPackets_19 0
scalar SlicingScenario.node[1].appl meanDelay_19 0
scalar SlicingScenario.node[1].appl meanJitter_19 0
scalar SlicingScenario.node[1].appl meanRxPacketSize_19 0
scalar SlicingScenario.node[1].appl meanTxPacketSize_19 0
scalar SlicingScenario.node[1].appl meanRxThroughput_19 0
scalar SlicingScenario.node[1].appl meanTxThroughput_19 0
scalar SlicingScenario.node[1].appl rxTimeOfService_19 0
scalar SlicingScenario.node[1].appl txTimeOfService_19 0
scalar SlicingScenario.node[1].appl txPackets_40_19 0
scalar SlicingScenario.node[1].appl rxPackets_40_19 207
scalar SlicingScenario.node[1].appl rxNeighborPackets_40_19 1985
scalar SlicingScenario.node[1].appl meanDelay_40_19 0.002072481318
scalar SlicingScenario.node[1].appl meanJitter_40_19 1.0174671e-05
scalar SlicingScenario.node[1].appl meanRxPacketSize_40_19 1510
scalar SlicingScenario.node[1].appl meanTxPacketSize_40_19 0
scalar SlicingScenario.node[1].appl meanRxThroughput_40_19 30346.602315336
scalar SlicingScenario.node[1].appl meanTxThroughput_40_19 0
scalar SlicingScenario.node[1].appl rxTimeOfService_40_19 82.399998985598
scalar SlicingScenario.node[1].appl txTimeOfService_40_19 0
scalar SlicingScenario.node[1].nic.phy80211p busyTime 0.10737286956522
scalar SlicingScenario.node[1].nic.phy80211p ncollisions 0
scalar SlicingScenario.node[1].nic.phy80211p UnderSensitivityPackets 576
scalar SlicingScenario.node[1].nic.mac1609_4 ReceivedUnicastPackets_CCH 0
scalar SlicingScenario.node[1].nic.mac1609_4 ReceivedBroadcasts_CCH 0
scalar SlicingScenario.node[1].nic.mac1609_4 SentPackets_CCH 0
scalar SlicingScenario.node[1].nic.mac1609_4 SentAcknowledgements_CCH 0
scalar SlicingScenario.node[1].nic.mac1609_4 SNIRLostPackets_CCH 0
scalar SlicingScenario.node[1].nic.mac1609_4 RXTXLostPackets_CCH 0
scalar SlicingScenario.node[1].nic.mac1609_4 TotalLostPackets_CCH 0
scalar SlicingScenario.node[1].nic.mac1609_4 DroppedPacketsInMac_CCH 0
scalar SlicingScenario.node[1].nic.mac1609_4 TooLittleTime_CCH 0
scalar SlicingScenario.node[1].nic.mac1609_4 TimesIntoBackoff_CCH 0
scalar SlicingScenario.node[1].nic.mac1609_4 SlotsBackoff_CCH 0
scalar SlicingScenario.node[1].nic.mac1609_4 NumInternalContention_CCH 0
scalar SlicingScenario.node[1].nic.mac1609_4 RemainingPacketsInEDCA_CCH 0
scalar SlicingScenario.node[1].nic.mac1609_4 totalBusyTime_CCH 0
scalar SlicingScenario.node[1].nic.mac1609_4 ReceivedUnicastPackets_SCH 0
scalar SlicingScenario.node[1].nic.mac1609_4 ReceivedBroadcasts_SCH 4786
scalar SlicingScenario.node[1].nic.mac1609_4 SentPackets_SCH 0
scalar SlicingScenario.node[1].nic.mac1609_4 SentAcknowledgements_SCH 0
scalar SlicingScenario.node[1].nic.mac1609_4 SNIRLostPackets_SCH 0
scalar SlicingScenario.node[1].nic.mac1609_4 RXTXLostPackets_SCH 0
scalar SlicingScenario.node[1].nic.mac1609_4 TotalLostPackets_SCH 0
scalar SlicingScenario.node[1].nic.mac1609_4 DroppedPacketsInMac_SCH 0
scalar SlicingScenario.node[1].nic.mac1609_4 TooLittleTime_SCH 0
scalar SlicingScenario.node[1].nic.mac1609_4 TimesIntoBackoff_SCH 0
scalar SlicingScenario.node[1].nic.mac1609_4 SlotsBackoff_SCH 0
scalar SlicingScenario.node[1].nic.mac1609_4 NumInternalContention_SCH 0
scalar SlicingScenario.node[1].nic.mac1609_4 RemainingPacketsInEDCA_SCH 0
scalar SlicingScenario.node[1].nic.mac1609_4 totalBusyTime_SCH 9.878304
scalar SlicingScenario.node[1].veinsmobility startTime 2
scalar SlicingScenario.node[1].veinsmobility totalTime 91
scalar SlicingScenario.node[1].veinsmobility stopTime 94
scalar SlicingScenario.node[1].veinsmobility minSpeed 10.610782947522
scalar SlicingScenario.node[1].veinsmobility maxSpeed 11.108177659931
scalar SlicingScenario.node[1].veinsmobility totalDistance 979.49342673762
scalar SlicingScenario.node[1].veinsmobility totalCO2Emission 159.17250054043
scalar SlicingScenario.node[2].appl txPackets_25 0
scalar SlicingScenario.node[2].appl rxPackets_25 0
scalar SlicingScenario.node[2].appl rxNeighborPackets_25 0
scalar SlicingScenario.node[2].appl meanDelay_25 0
scalar SlicingScenario.node[2].appl meanJitter_25 0
scalar SlicingScenario.node[2].appl meanRxPacketSize_25 0
scalar SlicingScenario.node[2].appl meanTxPacketSize_25 0
scalar SlicingScenario.node[2].appl meanRxThroughput_25 0
scalar SlicingScenario.node[2].appl meanTxThroughput_25 0
scalar SlicingScenario.node[2].appl rxTimeOfService_25 0
scalar SlicingScenario.node[2].appl txTimeOfService_25 0
scalar SlicingScenario.node[2].appl txPackets_40_25 0
scalar SlicingScenario.node[2].appl rxPackets_40_25 208
scalar SlicingScenario.node[2].appl rxNeighborPackets_40_25 2027
scalar SlicingScenario.node[2].appl meanDelay_40_25 0.002072828581
scalar SlicingScenario.node[2].appl meanJitter_40_25 1.0094306e-05
scalar SlicingScenario.node[2].appl meanRxPacketSize_40_25 1510
scalar SlicingScenario.node[2].appl meanTxPacketSize_40_25 0
scalar SlicingScenario.node[2].appl meanRxThroughput_40_25 30345.894092986
scalar SlicingScenario.node[2].appl meanTxThroughput_40_25 0
scalar SlicingScenario.node[2].appl rxTimeOfService_40_25 82.799998981765
scalar SlicingScenario.node[2].appl txTimeOfService_40_25 0
scalar SlicingScenario.node[2].nic.phy80211p busyTime 0.10966121739131
scalar SlicingScenario.node[2].nic.phy80211p ncollisions 0
scalar SlicingScenario.node[2].nic.phy80211p UnderSensitivityPackets 588
scalar SlicingScenario.node[2].nic.mac1609_4 ReceivedUnicastPackets_CCH 0
scalar SlicingScenario.node[2].nic.mac1609_4 ReceivedBroadcasts_CCH 0
scalar SlicingScenario.node[2].nic.mac1609_4 SentPackets_CCH 0
scalar SlicingScenario.node[2].nic.mac1609_4 SentAcknowledgements_CCH 0
scalar SlicingScenario.node[2].nic.mac1609_4 SNIRLostPackets_CCH 0
scalar SlicingScenario.node[2].nic.mac1609_4 RXTXLostPackets_CCH 0
scalar SlicingScenario.node[2].nic.mac1609_4 TotalLostPackets_CCH 0
scalar SlicingScenario.node[2].nic.mac1609_4 DroppedPacketsInMac_CCH 0
scalar SlicingScenario.node[2].nic.mac1609_4 TooLittleTime_CCH 0
scalar SlicingScenario.node[2].nic.mac1609_4 TimesIntoBackoff_CCH 0
scalar SlicingScenario.node[2].nic.mac1609_4 SlotsBackoff_CCH 0
scalar SlicingScenario.node[2].nic.mac1609_4 NumInternalContention_CCH 0
scalar SlicingScenario.node[2].nic.mac1609_4 RemainingPacketsInEDCA_CCH 0
scalar SlicingScenario.node[2].nic.mac1609_4 totalBusyTime_CCH 0
scalar SlicingScenario.node[2].nic.mac1609_4 ReceivedUnicastPackets_SCH 0
scalar SlicingScenario.node[2].nic.mac1609_4 ReceivedBroadcasts_SCH 4888
scalar SlicingScenario.node[2].nic.mac1609_4 SentPackets_SCH 0
scalar SlicingScenario.node[2].nic.mac1609_4 SentAcknowledgements_SCH 0
scalar SlicingScenario.node[2].nic.mac1609_4 SNIRLostPackets_SCH 0
scalar SlicingScenario.node[2].nic.mac1609_4 RXTXLostPackets_SCH 0
scalar SlicingScenario.node[2].nic.mac1609_4 TotalLostPackets_SCH 0
scalar SlicingScenario.node[2].nic.mac1609_4 DroppedPacketsInMac_SCH 0
scalar SlicingScenario.node[2].nic.mac1609_4 TooLittleTime_SCH 0
scalar SlicingScenario.node[2].nic.mac1609_4 TimesIntoBackoff_SCH 0
scalar SlicingScenario.node[2].nic.mac1609_4 SlotsBackoff_SCH 0
scalar SlicingScenario.node[2].nic.mac1609_4 NumInternalContention_SCH 0
scalar SlicingScenario.node[2].nic.mac1609_4 RemainingPacketsInEDCA_SCH 0
scalar SlicingScenario.node[2].nic.mac1609_4 totalBusyTime_SCH 10.088832
scalar SlicingScenario.node[2].veinsmobility startTime 3
scalar SlicingScenario.node[2].veinsmobility totalTime 91
scalar SlicingScenario.node[2].veinsmobility stopTime 95
scalar SlicingScenario.node[2].veinsmobility minSpeed 10.615672740401
scalar SlicingScenario.node[2].veinsmobility maxSpeed 11.107548351879
scalar SlicingScenario.node[2].veinsmobility totalDistance 978.14968422594
scalar SlicingScenario.node[2].veinsmobility totalCO2Emission 157.34442478884
scalar SlicingScenario.node[3].appl txPackets_31 0
scalar SlicingScenario.node[3].appl rxPackets_31 0
scalar SlicingScenario.node[3].appl rxNeighborPackets_31 0
scalar SlicingScenario.node[3].appl meanDelay_31 0
scalar SlicingScenario.node[3].appl meanJitter_31 0
scalar SlicingScenario.node[3].appl meanRxPacketSize_31 0
scalar SlicingScenario.node[3].appl meanTxPacketSize_31 0
scalar SlicingScenario.node[3].appl meanRxThroughput_31 0
scalar SlicingScenario.node[3].appl meanTxThroughput_31 0
scalar SlicingScenario.node[3].appl rxTimeOfService_31 0
scalar SlicingScenario.node[3].appl txTimeOfService_31 0
scalar SlicingScenario.node[3].appl txPackets_41_31 0
scalar SlicingScenario.node[3].appl rxPackets_41_31 206
scalar SlicingScenario.node[3].appl rxNeighborPackets_41_31 2513
scalar SlicingScenario.node[3].appl meanDelay_41_31 0.002344336971
scalar SlicingScenario.node[3].appl meanJitter_41_31 3.6767049e-05
scalar SlicingScenario.node[3].appl meanRxPacketSize_41_31 1510
scalar SlicingScenario.node[3].appl meanTxPacketSize_41_31 0
scalar SlicingScenario.node[3].appl meanRxThroughput_41_31 30346.851143807
scalar SlicingScenario.node[3].appl meanTxThroughput_41_31 0
scalar SlicingScenario.node[3].appl rxTimeOfService_41_31 82.001258984256
scalar SlicingScenario.node[3].appl txTimeOfService_41_31 0
scalar SlicingScenario.node[3].nic.phy80211p busyTime 0.11201686956522
scalar SlicingScenario.node[3].nic.phy80211p ncollisions 0
scalar SlicingScenario.node[3].nic.phy80211p UnderSensitivityPackets 598
scalar SlicingScenario.node[3].nic.mac1609_4 ReceivedUnicastPackets_CCH 0
scalar SlicingScenario.node[3].nic.mac1609_4 ReceivedBroadcasts_CCH 0
scalar SlicingScenario.node[3].nic.mac1609_4 SentPackets_CCH 0
scalar SlicingScenario.node[3].nic.mac1609_4 SentAcknowledgements_CCH 0
scalar SlicingScenario.node[3].nic.mac1609_4 SNIRLostPackets_CCH 0
scalar SlicingScenario.node[3].nic.mac1609_4 RXTXLostPackets_CCH 0
scalar SlicingScenario.node[3].nic.mac1609_4 TotalLostPackets_CCH 0
scalar SlicingScenario.node[3].nic.mac1609_4 DroppedPacketsInMac_CCH 0
scalar SlicingScenario.node[3].nic.mac1609_4 TooLittleTime_CCH 0
scalar SlicingScenario.node[3].nic.mac1609_4 TimesIntoBackoff_CCH 0
scalar SlicingScenario.node[3].nic.mac1609_4 SlotsBackoff_CCH 0
scalar SlicingScenario.node[3].nic.mac1609_4 NumInternalContention_CCH 0
scalar SlicingScenario.node[3].nic.mac1609_4 RemainingPacketsInEDCA_CCH 0
scalar SlicingScenario.node[3].nic.mac1609_4 totalBusyTime_CCH 0
scalar SlicingScenario.node[3].nic.mac1609_4 ReceivedUnicastPackets_SCH 0
scalar SlicingScenario.node[3].nic.mac1609_4 ReceivedBroadcasts_SCH 4993
scalar SlicingScenario.node[3].nic.mac1609_4 SentPackets_SCH 0
scalar SlicingScenario.node[3].nic.mac1609_4 SentAcknowledgements_SCH 0
scalar SlicingScenario.node[3].nic.mac1609_4 SNIRLostPackets_SCH 0
scalar SlicingScenario.node[3].nic.mac1609_4 RXTXLostPackets_SCH 0
scalar SlicingScenario.node[3].nic.mac1609_4 TotalLostPackets_SCH 0
scalar SlicingScenario.node[3].nic.mac1609_4 DroppedPacketsInMac_SCH 0
scalar SlicingScenario.node[3].nic.mac1609_4 TooLittleTime_SCH 0
scalar SlicingScenario.node[3].nic.mac1609_4 TimesIntoBackoff_SCH 0
scalar SlicingScenario.node[3].nic.mac1609_4 SlotsBackoff_SCH 0
scalar SlicingScenario.node[3].nic.mac1609_4 NumInternalContention_SCH 0
scalar SlicingScenario.node[3].nic.mac1609_4 RemainingPacketsInEDCA_SCH 0
scalar SlicingScenario.node[3].nic.mac1609_4 totalBusyTime_SCH 10.305552
scalar SlicingScenario.node[3].veinsmobility startTime 4
scalar SlicingScenario.node[3].veinsmobility totalTime 91
scalar SlicingScenario.node[3].veinsmobility stopTime 96
scalar SlicingScenario.node[3].veinsmobility minSpeed 10.614416133044
scalar SlicingScenario.node[3].veinsmobility maxSpeed 11.095338013736
scalar SlicingScenario.node[3].veinsmobility totalDistance 978.76654013625
scalar SlicingScenario.node[3].veinsmobility totalCO2Emission 158.30831867079
scalar SlicingScenario.node[4].appl txPackets_37 0
scalar SlicingScenario.node[4].appl rxPackets_37 0
scalar SlicingScenario.node[4].appl rxNeighborPackets_37 0
scalar SlicingScenario.node[4].appl meanDelay_37 0
scalar SlicingScenario.node[4].appl meanJitter_37 0
scalar SlicingScenario.node[4].appl meanRxPacketSize_37 0
scalar SlicingScenario.node[4].appl meanTxPacketSize_37 0
scalar SlicingScenario.node[4].appl meanRxThroughput_37 0
scalar SlicingScenario.node[4].appl meanTxThroughput_37 0
scalar SlicingScenario.node[4].appl rxTimeOfService_37 0
scalar SlicingScenario.node[4].appl txTimeOfService_37 0
scalar SlicingScenario.node[4].appl txPackets_40_37 0
scalar SlicingScenario.node[4].appl rxPackets_40_37 203
scalar SlicingScenario.node[4].appl rxNeighborPackets_40_37 2117
scalar SlicingScenario.node[4].appl meanDelay_40_37 0.002070478438
scalar SlicingScenario.node[4].appl meanJitter_40_37 1.0535374e-05
scalar SlicingScenario.node[4].appl meanRxPacketSize_40_37 1510
scalar SlicingScenario.node[4].appl meanTxPacketSize_40_37 0
scalar SlicingScenario.node[4].appl meanRxThroughput_40_37 30349.507571906
scalar SlicingScenario.node[4].appl meanTxThroughput_40_37 0
scalar SlicingScenario.node[4].appl rxTimeOfService_40_37 80.799993020974
scalar SlicingScenario.node[4].appl txTimeOfService_40_37 0
scalar SlicingScenario.node[4].nic.phy80211p busyTime 0.11435008695653
scalar SlicingScenario.node[4].nic.phy80211p ncollisions 0
scalar SlicingScenario.node[4].nic.phy80211p UnderSensitivityPackets 610
scalar SlicingScenario.node[4].nic.mac1609_4 ReceivedUnicastPackets_CCH 0
scalar SlicingScenario.node[4].nic.mac1609_4 ReceivedBroadcasts_CCH 0
scalar SlicingScenario.node[4].nic.mac1609_4 SentPackets_CCH 0
scalar SlicingScenario.node[4].nic.mac1609_4 SentAcknowledgements_CCH 0
scalar SlicingScenario.node[4].nic.mac1609_4 SNIRLostPackets_CCH 0
scalar SlicingScenario.node[4].nic.mac1609_4 RXTXLostPackets_CCH 0
scalar SlicingScenario.node[4].nic.mac1609_4 TotalLostPackets_CCH 0
scalar SlicingScenario.node[4].nic.mac1609_4 DroppedPacketsInMac_CCH 0
scalar SlicingScenario.node[4].nic.mac1609_4 TooLittleTime_CCH 0
scalar SlicingScenario.node[4].nic.mac1609_4 TimesIntoBackoff_CCH 0
scalar SlicingScenario.node[4].nic.mac1609_4 SlotsBackoff_CCH 0
scalar SlicingScenario.node[4].nic.mac1609_4 NumInternalContention_CCH 0
scalar SlicingScenario.node[4].nic.mac1609_4 RemainingPacketsInEDCA_CCH 0
scalar SlicingScenario.node[4].nic.mac1609_4 totalBusyTime_CCH 0
scalar SlicingScenario.node[4].nic.mac1609_4 ReceivedUnicastPackets_SCH 0
scalar SlicingScenario.node[4].nic.mac1609_4 ReceivedBroadcasts_SCH 5097
scalar SlicingScenario.node[4].nic.mac1609_4 SentPackets_SCH 0
scalar SlicingScenario.node[4].nic.mac1609_4 SentAcknowledgements_SCH 0
scalar SlicingScenario.node[4].nic.mac1609_4 SNIRLostPackets_SCH 0
scalar SlicingScenario.node[4].nic.mac1609_4 RXTXLostPackets_SCH 0
scalar SlicingScenario.node[4].nic.mac1609_4 TotalLostPackets_SCH 0
scalar SlicingScenario.node[4].nic.mac1609_4 DroppedPacketsInMac_SCH 0
scalar SlicingScenario.node[4].nic.mac1609_4 TooLittleTime_SCH 0
scalar SlicingScenario.node[4].nic.mac1609_4 TimesIntoBackoff_SCH 0
scalar SlicingScenario.node[4].nic.mac1609_4 SlotsBackoff_SCH 0
scalar SlicingScenario.node[4].nic.mac1609_4 NumInternalContention_SCH 0
scalar SlicingScenario.node[4].nic.mac1609_4 RemainingPacketsInEDCA_SCH 0
scalar SlicingScenario.node[4].nic.mac1609_4 totalBusyTime_SCH 10.520208
scalar SlicingScenario.node[4].veinsmobility startTime 5
scalar SlicingScenario.node[4].veinsmobility totalTime 91
scalar SlicingScenario.node[4].veinsmobility stopTime 97
scalar SlicingScenario.node[4].veinsmobility minSpeed 10.614733567475
scalar SlicingScenario.node[4].veinsmobility maxSpeed 11.093824313269
scalar SlicingScenario.node[4].veinsmobility totalDistance 979.03525471413
scalar SlicingScenario.node[4].veinsmobility totalCO2Emission 158.79162227275
scalar SlicingScenario.node[5].appl txPackets_43 0
scalar SlicingScenario.node[5].appl rxPackets_43 0
scalar SlicingScenario.node[5].appl rxNeighborPackets_43 0
scalar SlicingScenario.node[5].appl meanDelay_43 0
scalar SlicingScenario.node[5].appl meanJitter_43 0
scalar SlicingScenario.node[5].appl meanRxPacketSize_43 0
scalar SlicingScenario.node[5].appl meanTxPacketSize_43 0
scalar SlicingScenario.node[5].appl meanRxThroughput_43 0
scalar SlicingScenario.node[5].appl meanTxThroughput_43 0
scalar SlicingScenario.node[5].appl rxTimeOfService_43 0
scalar SlicingScenario.node[5].appl txTimeOfService_43 0
scalar SlicingScenario.node[5].appl txPackets_41_43 0
scalar SlicingScenario.node[5].appl rxPackets_41_43 202
scalar SlicingScenario.node[5].appl rxNeighborPackets_41_43 2639
scalar SlicingScenario.node[5].appl meanDelay_41_43 0.003575561672
scalar SlicingScenario.node[5].appl meanJitter_41_43 5.1180977e-05
scalar SlicingScenario.node[5].appl meanRxPacketSize_41_43 1510
scalar SlicingScenario.node[5].appl meanTxPacketSize_41_43 0
scalar SlicingScenario.node[5].appl meanRxThroughput_41_43 30350.244205939
scalar SlicingScenario.node[5].appl meanTxThroughput_41_43 0
scalar SlicingScenario.node[5].appl rxTimeOfService_41_43 80.400012054021
scalar SlicingScenario.node[5].appl txTimeOfService_41_43 0
scalar SlicingScenario.node[5].nic.phy80211p busyTime 0.11668330434783
scalar SlicingScenario.node[5].nic.phy80211p ncollisions 0
scalar SlicingScenario.node[5].nic.phy80211p UnderSensitivityPackets 621
scalar SlicingScenario.node[5].nic.mac1609_4 ReceivedUnicastPackets_CCH 0
scalar SlicingScenario.node[5].nic.mac1609_4 ReceivedBroadcasts_CCH 0
scalar SlicingScenario.node[5].nic.mac1609_4 SentPackets_CCH 0
scalar SlicingScenario.node[5].nic.mac1609_4 SentAcknowledgements_CCH 0
scalar SlicingScenario.node[5].nic.mac1609_4 SNIRLostPackets_CCH 0
scalar SlicingScenario.node[5].nic.mac1609_4 RXTXLostPackets_CCH 0
scalar SlicingScenario.node[5].nic.mac1609_4 TotalLostPackets_CCH 0
scalar SlicingScenario.node[5].nic.mac1609_4 DroppedPacketsInMac_CCH 0
scalar SlicingScenario.node[5].nic.mac1609_4 TooLittleTime_CCH 0
scalar SlicingScenario.node[5].nic.mac1609_4 TimesIntoBackoff_CCH 0
scalar SlicingScenario.node[5].nic.mac1609_4 SlotsBackoff_CCH 0
scalar SlicingScenario.node[5].nic.mac1609_4 NumInternalContention_CCH 0
scalar SlicingScenario.node[5].nic.mac1609_4 RemainingPacketsInEDCA_CCH 0
scalar SlicingScenario.node[5].nic.mac1609_4 totalBusyTime_CCH 0
scalar SlicingScenario.node[5].nic.mac1609_4 ReceivedUnicastPackets_SCH 0
scalar SlicingScenario.node[5].nic.mac1609_4 ReceivedBroadcasts_SCH 5201
scalar SlicingScenario.node[5].nic.mac1609_4 SentPackets_SCH 0
scalar SlicingScenario.node[5].nic.mac1609_4 SentAcknowledgements_SCH 0
scalar SlicingScenario.node[5].nic.mac1609_4 SNIRLostPackets_SCH 0
scalar SlicingScenario.node[5].nic.mac1609_4 RXTXLostPackets_SCH 0
scalar SlicingScenario.node[5].nic.mac1609_4 TotalLostPackets_SCH 0
scalar SlicingScenario.node[5].nic.mac1609_4 DroppedPacketsInMac_SCH 0
scalar SlicingScenario.node[5].nic.mac1609_4 TooLittleTime_SCH 0
scalar SlicingScenario.node[5].nic.mac1609_4 TimesIntoBackoff_SCH 0
scalar SlicingScenario.node[5].nic.mac1609_4 SlotsBackoff_SCH 0
scalar SlicingScenario.node[5].nic.mac1609_4 NumInternalContention_SCH 0
scalar SlicingScenario.node[5].nic.mac1609_4 RemainingPacketsInEDCA_SCH 0
scalar SlicingScenario.node[5].nic.mac1609_4 totalBusyTime_SCH 10.734864
scalar SlicingScenario.node[5].veinsmobility startTime 6
scalar SlicingScenario.node[5].veinsmobility totalTime 91
scalar SlicingScenario.node[5].veinsmobility stopTime 98
scalar SlicingScenario.node[5].veinsmobility minSpeed 10.61073009613
scalar SlicingScenario.node[5].veinsmobility maxSpeed 11.105685438393
scalar SlicingScenario.node[5].veinsmobility totalDistance 979.19127244159
scalar SlicingScenario.node[5].veinsmobility totalCO2Emission 159.18336097417
scalar SlicingScenario.node[7].appl txPackets_55 0
scalar SlicingScenario.node[7].appl rxPackets_55 0
scalar SlicingScenario.node[7].appl rxNeighborPackets_55 0
scalar SlicingScenario.node[7].appl meanDelay_55 0
scalar SlicingScenario.node[7].appl meanJitter_55 0
scalar SlicingScenario.node[7].appl meanRxPacketSize_55 0
scalar SlicingScenario.node[7].appl meanTxPacketSize_55 0
scalar SlicingScenario.node[7].appl meanRxThroughput_55 0
scalar SlicingScenario.node[7].appl meanTxThroughput_55 0
scalar SlicingScenario.node[7].appl rxTimeOfService_55 0
scalar SlicingScenario.node[7].appl txTimeOfService_55 0
scalar SlicingScenario.node[7].appl txPackets_41_55 0
scalar SlicingScenario.node[7].appl rxPackets_41_55 197
scalar SlicingScenario.node[7].appl rxNeighborPackets_41_55 2765
scalar SlicingScenario.node[7].appl meanDelay_41_55 0.00211683625
scalar SlicingScenario.node[7].appl meanJitter_41_55 2.0962787e-05
scalar SlicingScenario.node[7].appl meanRxPacketSize_41_55 1510
scalar SlicingScenario.node[7].appl meanTxPacketSize_41_55 0
scalar SlicingScenario.node[7].appl meanRxThroughput_41_55 30353.5105223
scalar SlicingScenario.node[7].appl meanTxThroughput_41_55 0
scalar SlicingScenario.node[7].appl rxTimeOfService_41_55 78.401475119381
scalar SlicingScenario.node[7].appl txTimeOfService_41_55 0
scalar SlicingScenario.node[7].nic.phy80211p busyTime 0.12134973913044
scalar SlicingScenario.node[7].nic.phy80211p ncollisions 0
scalar SlicingScenario.node[7].nic.phy80211p UnderSensitivityPackets 641
scalar SlicingScenario.node[7].nic.mac1609_4 ReceivedUnicastPackets_CCH 0
scalar SlicingScenario.node[7].nic.mac1609_4 ReceivedBroadcasts_CCH 0
scalar SlicingScenario.node[7].nic.mac1609_4 SentPackets_CCH 0
scalar SlicingScenario.node[7].nic.mac1609_4 SentAcknowledgements_CCH 0
scalar SlicingScenario.node[7].nic.mac1609_4 SNIRLostPackets_CCH 0
scalar SlicingScenario.node[7].nic.mac1609_4 RXTXLostPackets_CCH 0
scalar SlicingScenario.node[7].nic.mac1609_4 TotalLostPackets_CCH 0
scalar SlicingScenario.node[7].nic.mac1609_4 DroppedPacketsInMac_CCH 0
scalar SlicingScenario.node[7].nic.mac1609_4 TooLittleTime_CCH 0
scalar SlicingScenario.node[7].nic.mac1609_4 TimesIntoBackoff_CCH 0
scalar SlicingScenario.node[7].nic.mac1609_4 SlotsBackoff_CCH 0
scalar SlicingScenario.node[7].nic.mac1609_4 NumInternalContention_CCH 0
scalar SlicingScenario.node[7].nic.mac1609_4 RemainingPacketsInEDCA_CCH 0
scalar SlicingScenario.node[7].nic.mac1609_4 totalBusyTime_CCH 0
scalar SlicingScenario.node[7].nic.mac1609_4 ReceivedUnicastPackets_SCH 0
scalar SlicingScenario.node[7].nic.mac1609_4 ReceivedBroadcasts_SCH 5409
scalar SlicingScenario.node[7].nic.mac1609_4 SentPackets_SCH 0
scalar SlicingScenario.node[7].nic.mac1609_4 SentAcknowledgements_SCH 0
scalar SlicingScenario.node[7].nic.mac1609_4 SNIRLostPackets_SCH 0
scalar SlicingScenario.node[7].nic.mac1609_4 RXTXLostPackets_SCH 0
scalar SlicingScenario.node[7].nic.mac1609_4 TotalLostPackets_SCH 0
scalar SlicingScenario.node[7].nic.mac1609_4 DroppedPacketsInMac_SCH 0
scalar SlicingScenario.node[7].nic.mac1609_4 TooLittleTime_SCH 0
scalar SlicingScenario.node[7].nic.mac1609_4 TimesIntoBackoff_SCH 0
scalar SlicingScenario.node[7].nic.mac1609_4 SlotsBackoff_SCH 0
scalar SlicingScenario.node[7].nic.mac1609_4 NumInternalContention_SCH 0
scalar SlicingScenario.node[7].nic.mac1609_4 RemainingPacketsInEDCA_SCH 0
scalar SlicingScenario.node[7].nic.mac1609_4 totalBusyTime_SCH 11.164176
scalar SlicingScenario.node[7].veinsmobility startTime 8
scalar SlicingScenario.node[7].veinsmobility totalTime 91
scalar SlicingScenario.node[7].veinsmobility stopTime 100
scalar SlicingScenario.node[7].veinsmobility minSpeed 10.613504003049
scalar SlicingScenario.node[7].veinsmobility maxSpeed 11.108145744903
scalar SlicingScenario.node[7].veinsmobility totalDistance 976.928209343
scalar SlicingScenario.node[7].veinsmobility totalCO2Emission 159.99973919163
scalar SlicingScenario.node[6].appl txPackets_49 0
scalar SlicingScenario.node[6].appl rxPackets_49 0
scalar SlicingScenario.node[6].appl rxNeighborPackets_49 0
scalar SlicingScenario.node[6].appl meanDelay_49 0
scalar SlicingScenario.node[6].appl meanJitter_49 0
scalar SlicingScenario.node[6].appl meanRxPacketSize_49 0
scalar SlicingScenario.node[6].appl meanTxPacketSize_49 0
scalar SlicingScenario.node[6].appl meanRxThroughput_49 0
scalar SlicingScenario.node[6].appl meanTxThroughput_49 0
scalar SlicingScenario.node[6].appl rxTimeOfService_49 0
scalar SlicingScenario.node[6].appl txTimeOfService_49 0
scalar SlicingScenario.node[6].appl txPackets_41_49 0
scalar SlicingScenario.node[6].appl rxPackets_41_49 201
scalar SlicingScenario.node[6].appl rxNeighborPackets_41_49 2761
scalar SlicingScenario.node[6].appl meanDelay_41_49 0.002073992914
scalar SlicingScenario.node[6].appl meanJitter_41_49 1.0670339e-05
scalar SlicingScenario.node[6].appl meanRxPacketSize_41_49 1510
scalar SlicingScenario.node[6].appl meanTxPacketSize_41_49 0
scalar SlicingScenario.node[6].appl meanRxThroughput_41_49 30350.999590192
scalar SlicingScenario.node[6].appl meanTxThroughput_41_49 0
scalar SlicingScenario.node[6].appl rxTimeOfService_41_49 80.000001080182
scalar SlicingScenario.node[6].appl txTimeOfService_41_49 0
scalar SlicingScenario.node[6].nic.phy80211p busyTime 0.12004490322581
scalar SlicingScenario.node[6].nic.phy80211p ncollisions 0
scalar SlicingScenario.node[6].nic.phy80211p UnderSensitivityPackets 649
scalar SlicingScenario.node[6].nic.mac1609_4 ReceivedUnicastPackets_CCH 0
scalar SlicingScenario.node[6].nic.mac1609_4 ReceivedBroadcasts_CCH 0
scalar SlicingScenario.node[6].nic.mac1609_4 SentPackets_CCH 0
scalar SlicingScenario.node[6].nic.mac1609_4 SentAcknowledgements_CCH 0
scalar SlicingScenario.node[6].nic.mac1609_4 SNIRLostPackets_CCH 0
scalar SlicingScenario.node[6].nic.mac1609_4 RXTXLostPackets_CCH 0
scalar SlicingScenario.node[6].nic.mac1609_4 TotalLostPackets_CCH 0
scalar SlicingScenario.node[6].nic.mac1609_4 DroppedPacketsInMac_CCH 0
scalar SlicingScenario.node[6].nic.mac1609_4 TooLittleTime_CCH 0
scalar SlicingScenario.node[6].nic.mac1609_4 TimesIntoBackoff_CCH 0
scalar SlicingScenario.node[6].nic.mac1609_4 SlotsBackoff_CCH 0
scalar SlicingScenario.node[6].nic.mac1609_4 NumInternalContention_CCH 0
scalar SlicingScenario.node[6].nic.mac1609_4 RemainingPacketsInEDCA_CCH 0
scalar SlicingScenario.node[6].nic.mac1609_4 totalBusyTime_CCH 0
scalar SlicingScenario.node[6].nic.mac1609_4 ReceivedUnicastPackets_SCH 0
scalar SlicingScenario.node[6].nic.mac1609_4 ReceivedBroadcasts_SCH 5409
scalar SlicingScenario.node[6].nic.mac1609_4 SentPackets_SCH 0
scalar SlicingScenario.node[6].nic.mac1609_4 SentAcknowledgements_SCH 0
scalar SlicingScenario.node[6].nic.mac1609_4 SNIRLostPackets_SCH 0
scalar SlicingScenario.node[6].nic.mac1609_4 RXTXLostPackets_SCH 0
scalar SlicingScenario.node[6].nic.mac1609_4 TotalLostPackets_SCH 0
scalar SlicingScenario.node[6].nic.mac1609_4 DroppedPacketsInMac_SCH 0
scalar SlicingScenario.node[6].nic.mac1609_4 TooLittleTime_SCH 0
scalar SlicingScenario.node[6].nic.mac1609_4 TimesIntoBackoff_SCH 0
scalar SlicingScenario.node[6].nic.mac1609_4 SlotsBackoff_SCH 0
scalar SlicingScenario.node[6].nic.mac1609_4 NumInternalContention_SCH 0
scalar SlicingScenario.node[6].nic.mac1609_4 RemainingPacketsInEDCA_SCH 0
scalar SlicingScenario.node[6].nic.mac1609_4 totalBusyTime_SCH 11.164176
scalar SlicingScenario.node[6].veinsmobility startTime 7
scalar SlicingScenario.node[6].veinsmobility totalTime 92
scalar SlicingScenario.node[6].veinsmobility stopTime 100
scalar SlicingScenario.node[6].veinsmobility minSpeed 7.9103919787896
scalar SlicingScenario.node[6].veinsmobility maxSpeed 11.108586417641
scalar SlicingScenario.node[6].veinsmobility totalDistance 983.73274231244
scalar SlicingScenario.node[6].veinsmobility totalCO2Emission 166.62108761462
scalar SlicingScenario.node[8].appl txPackets_61 0
scalar SlicingScenario.node[8].appl rxPackets_61 0
scalar SlicingScenario.node[8].appl rxNeighborPackets_61 0
scalar SlicingScenario.node[8].appl meanDelay_61 0
scalar SlicingScenario.node[8].appl meanJitter_61 0
scalar SlicingScenario.node[8].appl meanRxPacketSize_61 0
scalar SlicingScenario.node[8].appl meanTxPacketSize_61 0
scalar SlicingScenario.node[8].appl meanRxThroughput_61 0
scalar SlicingScenario.node[8].appl meanTxThroughput_61 0
scalar SlicingScenario.node[8].appl rxTimeOfService_61 0
scalar SlicingScenario.node[8].appl txTimeOfService_61 0
scalar SlicingScenario.node[8].appl txPackets_40_61 0
scalar SlicingScenario.node[8].appl rxPackets_40_61 194
scalar SlicingScenario.node[8].appl rxNeighborPackets_40_61 2298
scalar SlicingScenario.node[8].appl meanDelay_40_61 0.002073303262
scalar SlicingScenario.node[8].appl meanJitter_40_61 1.1027613e-05
scalar SlicingScenario.node[8].appl meanRxPacketSize_40_61 1510
scalar SlicingScenario.node[8].appl meanTxPacketSize_40_61 0
scalar SlicingScenario.node[8].appl meanRxThroughput_40_61 30356.479375989
scalar SlicingScenario.node[8].appl meanTxThroughput_40_61 0
scalar SlicingScenario.node[8].appl rxTimeOfService_40_61 77.199993153806
scalar SlicingScenario.node[8].appl txTimeOfService_40_61 0
scalar SlicingScenario.node[8].nic.phy80211p busyTime 0.12363808695653
scalar SlicingScenario.node[8].nic.phy80211p ncollisions 0
scalar SlicingScenario.node[8].nic.phy80211p UnderSensitivityPackets 655
scalar SlicingScenario.node[8].nic.mac1609_4 ReceivedUnicastPackets_CCH 0
scalar SlicingScenario.node[8].nic.mac1609_4 ReceivedBroadcasts_CCH 0
scalar SlicingScenario.node[8].nic.mac1609_4 SentPackets_CCH 0
scalar SlicingScenario.node[8].nic.mac1609_4 SentAcknowledgements_CCH 0
scalar SlicingScenario.node[8].nic.mac1609_4 SNIRLostPackets_CCH 0
scalar SlicingScenario.node[8].nic.mac1609_4 RXTXLostPackets_CCH 0
scalar SlicingScenario.node[8].nic.mac1609_4 TotalLostPackets_CCH 0
scalar SlicingScenario.node[8].nic.mac1609_4 DroppedPacketsInMac_CCH 0
scalar SlicingScenario.node[8].nic.mac1609_4 TooLittleTime_CCH 0
scalar SlicingScenario.node[8].nic.mac1609_4 TimesIntoBackoff_CCH 0
scalar SlicingScenario.node[8].nic.mac1609_4 SlotsBackoff_CCH 0
scalar SlicingScenario.node[8].nic.mac1609_4 NumInternalContention_CCH 0
scalar SlicingScenario.node[8].nic.mac1609_4 RemainingPacketsInEDCA_CCH 0
scalar SlicingScenario.node[8].nic.mac1609_4 totalBusyTime_CCH 0
scalar SlicingScenario.node[8].nic.mac1609_4 ReceivedUnicastPackets_SCH 0
scalar SlicingScenario.node[8].nic.mac1609_4 ReceivedBroadcasts_SCH 5511
scalar SlicingScenario.node[8].nic.mac1609_4 SentPackets_SCH 0
scalar SlicingScenario.node[8].nic.mac1609_4 SentAcknowledgements_SCH 0
scalar SlicingScenario.node[8].nic.mac1609_4 SNIRLostPackets_SCH 0
scalar SlicingScenario.node[8].nic.mac1609_4 RXTXLostPackets_SCH 0
scalar SlicingScenario.node[8].nic.mac1609_4 TotalLostPackets_SCH 0
scalar SlicingScenario.node[8].nic.mac1609_4 DroppedPacketsInMac_SCH 0
scalar SlicingScenario.node[8].nic.mac1609_4 TooLittleTime_SCH 0
scalar SlicingScenario.node[8].nic.mac1609_4 TimesIntoBackoff_SCH 0
scalar SlicingScenario.node[8].nic.mac1609_4 SlotsBackoff_SCH 0
scalar SlicingScenario.node[8].nic.mac1609_4 NumInternalContention_SCH 0
scalar SlicingScenario.node[8].nic.mac1609_4 RemainingPacketsInEDCA_SCH 0
scalar SlicingScenario.node[8].nic.mac1609_4 totalBusyTime_SCH 11.374704
scalar SlicingScenario.node[8].veinsmobility startTime 9
scalar SlicingScenario.node[8].veinsmobility totalTime 91
scalar SlicingScenario.node[8].veinsmobility stopTime 101
scalar SlicingScenario.node[8].veinsmobility minSpeed 10.615448012496
scalar SlicingScenario.node[8].veinsmobility maxSpeed 11.108020404601
scalar SlicingScenario.node[8].veinsmobility totalDistance 977.4326025453
scalar SlicingScenario.node[8].veinsmobility totalCO2Emission 157.80961416438
scalar SlicingScenario.node[9].appl txPackets_67 0
scalar SlicingScenario.node[9].appl rxPackets_67 0
scalar SlicingScenario.node[9].appl rxNeighborPackets_67 0
scalar SlicingScenario.node[9].appl meanDelay_67 0
scalar SlicingScenario.node[9].appl meanJitter_67 0
scalar SlicingScenario.node[9].appl meanRxPacketSize_67 0
scalar SlicingScenario.node[9].appl meanTxPacketSize_67 0
scalar SlicingScenario.node[9].appl meanRxThroughput_67 0
scalar SlicingScenario.node[9].appl meanTxThroughput_67 0
scalar SlicingScenario.node[9].appl rxTimeOfService_67 0
scalar SlicingScenario.node[9].appl txTimeOfService_67 0
scalar SlicingScenario.node[9].appl txPackets_40_67 0
scalar SlicingScenario.node[9].appl rxPackets_40_67 192
scalar SlicingScenario.node[9].appl rxNeighborPackets_40_67 2340
scalar SlicingScenario.node[9].appl meanDelay_40_67 0.002898956379
scalar SlicingScenario.node[9].appl meanJitter_40_67 3.429621e-05
scalar SlicingScenario.node[9].appl meanRxPacketSize_40_67 1510
scalar SlicingScenario.node[9].appl meanTxPacketSize_40_67 0
scalar SlicingScenario.node[9].appl meanRxThroughput_40_67 30357.423715205
scalar SlicingScenario.node[9].appl meanTxThroughput_40_67 0
scalar SlicingScenario.node[9].appl rxTimeOfService_40_67 76.401740205586
scalar SlicingScenario.node[9].appl txTimeOfService_40_67 0
scalar SlicingScenario.node[9].nic.phy80211p busyTime 0.12599373913044
scalar SlicingScenario.node[9].nic.phy80211p ncollisions 0
scalar SlicingScenario.node[9].nic.phy80211p UnderSensitivityPackets 664
scalar SlicingScenario.node[9].nic.mac1609_4 ReceivedUnicastPackets_CCH 0
scalar SlicingScenario.node[9].nic.mac1609_4 ReceivedBroadcasts_CCH 0
scalar SlicingScenario.node[9].nic.mac1609_4 SentPackets_CCH 0
scalar SlicingScenario.node[9].nic.mac1609_4 SentAcknowledgements_CCH 0
scalar SlicingScenario.node[9].nic.mac1609_4 SNIRLostPackets_CCH 0
scalar SlicingScenario.node[9].nic.mac1609_4 RXTXLostPackets_CCH 0
scalar SlicingScenario.node[9].nic.mac1609_4 TotalLostPackets_CCH 0
scalar SlicingScenario.node[9].nic.mac1609_4 DroppedPacketsInMac_CCH 0
scalar SlicingScenario.node[9].nic.mac1609_4 TooLittleTime_CCH 0
scalar SlicingScenario.node[9].nic.mac1609_4 TimesIntoBackoff_CCH 0
scalar SlicingScenario.node[9].nic.mac1609_4 SlotsBackoff_CCH 0
scalar SlicingScenario.node[9].nic.mac1609_4 NumInternalContention_CCH 0
scalar SlicingScenario.node[9].nic.mac1609_4 RemainingPacketsInEDCA_CCH 0
scalar SlicingScenario.node[9].nic.mac1609_4 totalBusyTime_CCH 0
scalar SlicingScenario.node[9].nic.mac1609_4 ReceivedUnicastPackets_SCH 0
scalar SlicingScenario.node[9].nic.mac1609_4 ReceivedBroadcasts_SCH 5616
scalar SlicingScenario.node[9].nic.mac1609_4 SentPackets_SCH 0
scalar SlicingScenario.node[9].nic.mac1609_4 SentAcknowledgements_SCH 0
scalar SlicingScenario.node[9].nic.mac1609_4 SNIRLostPackets_SCH 0
scalar SlicingScenario.node[9].nic.mac1609_4 RXTXLostPackets_SCH 0
scalar SlicingScenario.node[9].nic.mac1609_4 TotalLostPackets_SCH 0
scalar SlicingScenario.node[9].nic.mac1609_4 DroppedPacketsInMac_SCH 0
scalar SlicingScenario.node[9].nic.mac1609_4 TooLittleTime_SCH 0
scalar SlicingScenario.node[9].nic.mac1609_4 TimesIntoBackoff_SCH 0
scalar SlicingScenario.node[9].nic.mac1609_4 SlotsBackoff_SCH 0
scalar SlicingScenario.node[9].nic.mac1609_4 NumInternalContention_SCH 0
scalar SlicingScenario.node[9].nic.mac1609_4 RemainingPacketsInEDCA_SCH 0
scalar SlicingScenario.node[9].nic.mac1609_4 totalBusyTime_SCH 11.591424
scalar SlicingScenario.node[9].veinsmobility startTime 10
scalar SlicingScenario.node[9].veinsmobility totalTime 91
scalar SlicingScenario.node[9].veinsmobility stopTime 102
scalar SlicingScenario.node[9].veinsmobility minSpeed 10.437577805162
scalar SlicingScenario.node[9].veinsmobility maxSpeed 11.107263716999
scalar SlicingScenario.node[9].veinsmobility totalDistance 980.5308551348
scalar SlicingScenario.node[9].veinsmobility totalCO2Emission 160.1564335116
scalar SlicingScenario.node[10].appl txPackets_73 0
scalar SlicingScenario.node[10].appl rxPackets_73 0
scalar SlicingScenario.node[10].appl rxNeighborPackets_73 0
scalar SlicingScenario.node[10].appl meanDelay_73 0
scalar SlicingScenario.node[10].appl meanJitter_73 0
scalar SlicingScenario.node[10].appl meanRxPacketSize_73 0
scalar SlicingScenario.node[10].appl meanTxPacketSize_73 0
scalar SlicingScenario.node[10].appl meanRxThroughput_73 0
scalar SlicingScenario.node[10].appl meanTxThroughput_73 0
scalar SlicingScenario.node[10].appl rxTimeOfService_73 0
scalar SlicingScenario.node[10].appl txTimeOfService_73 0
scalar SlicingScenario.node[10].appl txPackets_40_73 0
scalar SlicingScenario.node[10].appl rxPackets_40_73 191
scalar SlicingScenario.node[10].appl rxNeighborPackets_40_73 2427
scalar SlicingScenario.node[10].appl meanDelay_40_73 0.002748192336
scalar SlicingScenario.node[10].appl meanJitter_40_73 4.2921839e-05
scalar SlicingScenario.node[10].appl meanRxPacketSize_40_73 1510
scalar SlicingScenario.node[10].appl meanTxPacketSize_40_73 0
scalar SlicingScenario.node[10].appl meanRxThroughput_40_73 30358.392439649
scalar SlicingScenario.node[10].appl meanTxThroughput_40_73 0
scalar SlicingScenario.node[10].appl rxTimeOfService_40_73 76.001389223318
scalar SlicingScenario.node[10].appl txTimeOfService_40_73 0
scalar SlicingScenario.node[10].nic.phy80211p busyTime 0.12925522580646
scalar SlicingScenario.node[10].nic.phy80211p ncollisions 0
scalar SlicingScenario.node[10].nic.phy80211p UnderSensitivityPackets 698
scalar SlicingScenario.node[10].nic.mac1609_4 ReceivedUnicastPackets_CCH 0
scalar SlicingScenario.node[10].nic.mac1609_4 ReceivedBroadcasts_CCH 0
scalar SlicingScenario.node[10].nic.mac1609_4 SentPackets_CCH 0
scalar SlicingScenario.node[10].nic.mac1609_4 SentAcknowledgements_CCH 0
scalar SlicingScenario.node[10].nic.mac1609_4 SNIRLostPackets_CCH 0
scalar SlicingScenario.node[10].nic.mac1609_4 RXTXLostPackets_CCH 0
scalar SlicingScenario.node[10].nic.mac1609_4 TotalLostPackets_CCH 0
scalar SlicingScenario.node[10].nic.mac1609_4 DroppedPacketsInMac_CCH 0
scalar SlicingScenario.node[10].nic.mac1609_4 TooLittleTime_CCH 0
scalar SlicingScenario.node[10].nic.mac1609_4 TimesIntoBackoff_CCH 0
scalar SlicingScenario.node[10].nic.mac1609_4 SlotsBackoff_CCH 0
scalar SlicingScenario.node[10].nic.mac1609_4 NumInternalContention_CCH 0
scalar SlicingScenario.node[10].nic.mac1609_4 RemainingPacketsInEDCA_CCH 0
scalar SlicingScenario.node[10].nic.mac1609_4 totalBusyTime_CCH 0
scalar SlicingScenario.node[10].nic.mac1609_4 ReceivedUnicastPackets_SCH 0
scalar SlicingScenario.node[10].nic.mac1609_4 ReceivedBroadcasts_SCH 5824
scalar SlicingScenario.node[10].nic.mac1609_4 SentPackets_SCH 0
scalar SlicingScenario.node[10].nic.mac1609_4 SentAcknowledgements_SCH 0
scalar SlicingScenario.node[10].nic.mac1609_4 SNIRLostPackets_SCH 0
scalar SlicingScenario.node[10].nic.mac1609_4 RXTXLostPackets_SCH 0
scalar SlicingScenario.node[10].nic.mac1609_4 TotalLostPackets_SCH 0
scalar SlicingScenario.node[10].nic.mac1609_4 DroppedPacketsInMac_SCH 0
scalar SlicingScenario.node[10].nic.mac1609_4 TooLittleTime_SCH 0
scalar SlicingScenario.node[10].nic.mac1609_4 TimesIntoBackoff_SCH 0
scalar SlicingScenario.node[10].nic.mac1609_4 SlotsBackoff_SCH 0
scalar SlicingScenario.node[10].nic.mac1609_4 NumInternalContention_SCH 0
scalar SlicingScenario.node[10].nic.mac1609_4 RemainingPacketsInEDCA_SCH 0
scalar SlicingScenario.node[10].nic.mac1609_4 totalBusyTime_SCH 12.020736
scalar SlicingScenario.node[10].veinsmobility startTime 11
scalar SlicingScenario.node[10].veinsmobility totalTime 92
scalar SlicingScenario.node[10].veinsmobility stopTime 104
scalar SlicingScenario.node[10].veinsmobility minSpeed 7.9843936528061
scalar SlicingScenario.node[10].veinsmobility maxSpeed 11.102505127564
scalar SlicingScenario.node[10].veinsmobility totalDistance 983.25103443144
scalar SlicingScenario.node[10].veinsmobility totalCO2Emission 168.29483559982
scalar SlicingScenario.node[11].appl txPackets_79 0
scalar SlicingScenario.node[11].appl rxPackets_79 0
scalar SlicingScenario.node[11].appl rxNeighborPackets_79 0
scalar SlicingScenario.node[11].appl meanDelay_79 0
scalar SlicingScenario.node[11].appl meanJitter_79 0
scalar SlicingScenario.node[11].appl meanRxPacketSize_79 0
scalar SlicingScenario.node[11].appl meanTxPacketSize_79 0
scalar SlicingScenario.node[11].appl meanRxThroughput_79 0
scalar SlicingScenario.node[11].appl meanTxThroughput_79 0
scalar SlicingScenario.node[11].appl rxTimeOfService_79 0
scalar SlicingScenario.node[11].appl txTimeOfService_79 0
scalar SlicingScenario.node[11].appl txPackets_40_79 0
scalar SlicingScenario.node[11].appl rxPackets_40_79 187
scalar SlicingScenario.node[11].appl rxNeighborPackets_40_79 2431
scalar SlicingScenario.node[11].appl meanDelay_40_79 0.002072914223
scalar SlicingScenario.node[11].appl meanJitter_40_79 1.1355208e-05
scalar SlicingScenario.node[11].appl meanRxPacketSize_40_79 1510
scalar SlicingScenario.node[11].appl meanTxPacketSize_40_79 0
scalar SlicingScenario.node[11].appl meanRxThroughput_40_79 30362.366298753
scalar SlicingScenario.node[11].appl meanTxThroughput_40_79 0
scalar SlicingScenario.node[11].appl rxTimeOfService_40_79 74.399998266696
scalar SlicingScenario.node[11].appl txTimeOfService_40_79 0
scalar SlicingScenario.node[11].nic.phy80211p busyTime 0.13066017391305
scalar SlicingScenario.node[11].nic.phy80211p ncollisions 0
scalar SlicingScenario.node[11].nic.phy80211p UnderSensitivityPackets 686
scalar SlicingScenario.node[11].nic.mac1609_4 ReceivedUnicastPackets_CCH 0
scalar SlicingScenario.node[11].nic.mac1609_4 ReceivedBroadcasts_CCH 0
scalar SlicingScenario.node[11].nic.mac1609_4 SentPackets_CCH 0
scalar SlicingScenario.node[11].nic.mac1609_4 SentAcknowledgements_CCH 0
scalar SlicingScenario.node[11].nic.mac1609_4 SNIRLostPackets_CCH 0
scalar SlicingScenario.node[11].nic.mac1609_4 RXTXLostPackets_CCH 0
scalar SlicingScenario.node[11].nic.mac1609_4 TotalLostPackets_CCH 0
scalar SlicingScenario.node[11].nic.mac1609_4 DroppedPacketsInMac_CCH 0
scalar SlicingScenario.node[11].nic.mac1609_4 TooLittleTime_CCH 0
scalar SlicingScenario.node[11].nic.mac1609_4 TimesIntoBackoff_CCH 0
scalar SlicingScenario.node[11].nic.mac1609_4 SlotsBackoff_CCH 0
scalar SlicingScenario.node[11].nic.mac1609_4 NumInternalContention_CCH 0
scalar SlicingScenario.node[11].nic.mac1609_4 RemainingPacketsInEDCA_CCH 0
scalar SlicingScenario.node[11].nic.mac1609_4 totalBusyTime_CCH 0
scalar SlicingScenario.node[11].nic.mac1609_4 ReceivedUnicastPackets_SCH 0
scalar SlicingScenario.node[11].nic.mac1609_4 ReceivedBroadcasts_SCH 5824
scalar SlicingScenario.node[11].nic.mac1609_4 SentPackets_SCH 0
scalar SlicingScenario.node[11].nic.mac1609_4 SentAcknowledgements_SCH 0
scalar SlicingScenario.node[11].nic.mac1609_4 SNIRLostPackets_SCH 0
scalar SlicingScenario.node[11].nic.mac1609_4 RXTXLostPackets_SCH 0
scalar SlicingScenario.node[11].nic.mac1609_4 TotalLostPackets_SCH 0
scalar SlicingScenario.node[11].nic.mac1609_4 DroppedPacketsInMac_SCH 0
scalar SlicingScenario.node[11].nic.mac1609_4 TooLittleTime_SCH 0
scalar SlicingScenario.node[11].nic.mac1609_4 TimesIntoBackoff_SCH 0
scalar SlicingScenario.node[11].nic.mac1609_4 SlotsBackoff_SCH 0
scalar SlicingScenario.node[11].nic.mac1609_4 NumInternalContention_SCH 0
scalar SlicingScenario.node[11].nic.mac1609_4 RemainingPacketsInEDCA_SCH 0
scalar SlicingScenario.node[11].nic.mac1609_4 totalBusyTime_SCH 12.020736
scalar SlicingScenario.node[11].veinsmobility startTime 12
scalar SlicingScenario.node[11].veinsmobility totalTime 91
scalar SlicingScenario.node[11].veinsmobility stopTime 104
scalar SlicingScenario.node[11].veinsmobility minSpeed 10.618449223591
scalar SlicingScenario.node[11].veinsmobility maxSpeed 11.102260185536
scalar SlicingScenario.node[11].veinsmobility totalDistance 977.39116450609
scalar SlicingScenario.node[11].veinsmobility totalCO2Emission 158.71386784939
scalar SlicingScenario.node[12].appl txPackets_85 0
scalar SlicingScenario.node[12].appl rxPackets_85 0
scalar SlicingScenario.node[12].appl rxNeighborPackets_85 0
scalar SlicingScenario.node[12].appl meanDelay_85 0
scalar SlicingScenario.node[12].appl meanJitter_85 0
scalar SlicingScenario.node[12].appl meanRxPacketSize_85 0
scalar SlicingScenario.node[12].appl meanTxPacketSize_85 0
scalar SlicingScenario.node[12].appl meanRxThroughput_85 0
scalar SlicingScenario.node[12].appl meanTxThroughput_85 0
scalar SlicingScenario.node[12].appl rxTimeOfService_85 0
scalar SlicingScenario.node[12].appl txTimeOfService_85 0
scalar SlicingScenario.node[12].appl txPackets_41_85 0
scalar SlicingScenario.node[12].appl rxPackets_41_85 185
scalar SlicingScenario.node[12].appl rxNeighborPackets_41_85 3076
scalar SlicingScenario.node[12].appl meanDelay_41_85 0.002738962683
scalar SlicingScenario.node[12].appl meanJitter_41_85 5.5654772e-05
scalar SlicingScenario.node[12].appl meanRxPacketSize_41_85 1510
scalar SlicingScenario.node[12].appl meanTxPacketSize_41_85 0
scalar SlicingScenario.node[12].appl meanRxThroughput_41_85 30362.699217879
scalar SlicingScenario.node[12].appl meanTxThroughput_41_85 0
scalar SlicingScenario.node[12].appl rxTimeOfService_41_85 73.60346930829
scalar SlicingScenario.node[12].appl txTimeOfService_41_85 0
scalar SlicingScenario.node[12].nic.phy80211p busyTime 0.13294852173914
scalar SlicingScenario.node[12].nic.phy80211p ncollisions 0
scalar SlicingScenario.node[12].nic.phy80211p UnderSensitivityPackets 699
scalar SlicingScenario.node[12].nic.mac1609_4 ReceivedUnicastPackets_CCH 0
scalar SlicingScenario.node[12].nic.mac1609_4 ReceivedBroadcasts_CCH 0
scalar SlicingScenario.node[12].nic.mac1609_4 SentPackets_CCH 0
scalar SlicingScenario.node[12].nic.mac1609_4 SentAcknowledgements_CCH 0
scalar SlicingScenario.node[12].nic.mac1609_4 SNIRLostPackets_CCH 0
scalar SlicingScenario.node[12].nic.mac1609_4 RXTXLostPackets_CCH 0
scalar SlicingScenario.node[12].nic.mac1609_4 TotalLostPackets_CCH 0
scalar SlicingScenario.node[12].nic.mac1609_4 DroppedPacketsInMac_CCH 0
scalar SlicingScenario.node[12].nic.mac1609_4 TooLittleTime_CCH 0
scalar SlicingScenario.node[12].nic.mac1609_4 TimesIntoBackoff_CCH 0
scalar SlicingScenario.node[12].nic.mac1609_4 SlotsBackoff_CCH 0
scalar SlicingScenario.node[12].nic.mac1609_4 NumInternalContention_CCH 0
scalar SlicingScenario.node[12].nic.mac1609_4 RemainingPacketsInEDCA_CCH 0
scalar SlicingScenario.node[12].nic.mac1609_4 totalBusyTime_CCH 0
scalar SlicingScenario.node[12].nic.mac1609_4 ReceivedUnicastPackets_SCH 0
scalar SlicingScenario.node[12].nic.mac1609_4 ReceivedBroadcasts_SCH 5926
scalar SlicingScenario.node[12].nic.mac1609_4 SentPackets_SCH 0
scalar SlicingScenario.node[12].nic.mac1609_4 SentAcknowledgements_SCH 0
scalar SlicingScenario.node[12].nic.mac1609_4 SNIRLostPackets_SCH 0
scalar SlicingScenario.node[12].nic.mac1609_4 RXTXLostPackets_SCH 0
scalar SlicingScenario.node[12].nic.mac1609_4 TotalLostPackets_SCH 0
scalar SlicingScenario.node[12].nic.mac1609_4 DroppedPacketsInMac_SCH 0
scalar SlicingScenario.node[12].nic.mac1609_4 TooLittleTime_SCH 0
scalar SlicingScenario.node[12].nic.mac1609_4 TimesIntoBackoff_SCH 0
scalar SlicingScenario.node[12].nic.mac1609_4 SlotsBackoff_SCH 0
scalar SlicingScenario.node[12].nic.mac1609_4 NumInternalContention_SCH 0
scalar SlicingScenario.node[12].nic.mac1609_4 RemainingPacketsInEDCA_SCH 0
scalar SlicingScenario.node[12].nic.mac1609_4 totalBusyTime_SCH 12.231264
scalar SlicingScenario.node[12].veinsmobility startTime 13
scalar SlicingScenario.node[12].veinsmobility totalTime 91
scalar SlicingScenario.node[12].veinsmobility stopTime 105
scalar SlicingScenario.node[12].veinsmobility minSpeed 10.617819041726
scalar SlicingScenario.node[12].veinsmobility maxSpeed 11.104718579808
scalar SlicingScenario.node[12].veinsmobility totalDistance 979.48831525264
scalar SlicingScenario.node[12].veinsmobility totalCO2Emission 159.67274798565
scalar SlicingScenario.node[13].appl txPackets_91 0
scalar SlicingScenario.node[13].appl rxPackets_91 0
scalar SlicingScenario.node[13].appl rxNeighborPackets_91 0
scalar SlicingScenario.node[13].appl meanDelay_91 0
scalar SlicingScenario.node[13].appl meanJitter_91 0
scalar SlicingScenario.node[13].appl meanRxPacketSize_91 0
scalar SlicingScenario.node[13].appl meanTxPacketSize_91 0
scalar SlicingScenario.node[13].appl meanRxThroughput_91 0
scalar SlicingScenario.node[13].appl meanTxThroughput_91 0
scalar SlicingScenario.node[13].appl rxTimeOfService_91 0
scalar SlicingScenario.node[13].appl txTimeOfService_91 0
scalar SlicingScenario.node[13].appl txPackets_40_91 0
scalar SlicingScenario.node[13].appl rxPackets_40_91 182
scalar SlicingScenario.node[13].appl rxNeighborPackets_40_91 2527
scalar SlicingScenario.node[13].appl meanDelay_40_91 0.002313660479
scalar SlicingScenario.node[13].appl meanJitter_40_91 4.6727704e-05
scalar SlicingScenario.node[13].appl meanRxPacketSize_40_91 1510
scalar SlicingScenario.node[13].appl meanTxPacketSize_40_91 0
scalar SlicingScenario.node[13].appl meanRxThroughput_40_91 30366.856141241
scalar SlicingScenario.node[13].appl meanTxThroughput_40_91 0
scalar SlicingScenario.node[13].appl rxTimeOfService_40_91 72.399987334025
scalar SlicingScenario.node[13].appl txTimeOfService_40_91 0
scalar SlicingScenario.node[13].nic.phy80211p busyTime 0.13530417391306
scalar SlicingScenario.node[13].nic.phy80211p ncollisions 0
scalar SlicingScenario.node[13].nic.phy80211p UnderSensitivityPackets 708
scalar SlicingScenario.node[13].nic.mac1609_4 ReceivedUnicastPackets_CCH 0
scalar SlicingScenario.node[13].nic.mac1609_4 ReceivedBroadcasts_CCH 0
scalar SlicingScenario.node[13].nic.mac1609_4 SentPackets_CCH 0
scalar SlicingScenario.node[13].nic.mac1609_4 SentAcknowledgements_CCH 0
scalar SlicingScenario.node[13].nic.mac1609_4 SNIRLostPackets_CCH 0
scalar SlicingScenario.node[13].nic.mac1609_4 RXTXLostPackets_CCH 0
scalar SlicingScenario.node[13].nic.mac1609_4 TotalLostPackets_CCH 0
scalar SlicingScenario.node[13].nic.mac1609_4 DroppedPacketsInMac_CCH 0
scalar SlicingScenario.node[13].nic.mac1609_4 TooLittleTime_CCH 0
scalar SlicingScenario.node[13].nic.mac1609_4 TimesIntoBackoff_CCH 0
scalar SlicingScenario.node[13].nic.mac1609_4 SlotsBackoff_CCH 0
scalar SlicingScenario.node[13].nic.mac1609_4 NumInternalContention_CCH 0
scalar SlicingScenario.node[13].nic.mac1609_4 RemainingPacketsInEDCA_CCH 0
scalar SlicingScenario.node[13].nic.mac1609_4 totalBusyTime_CCH 0
scalar SlicingScenario.node[13].nic.mac1609_4 ReceivedUnicastPackets_SCH 0
scalar SlicingScenario.node[13].nic.mac1609_4 ReceivedBroadcasts_SCH 6031
scalar SlicingScenario.node[13].nic.mac1609_4 SentPackets_SCH 0
scalar SlicingScenario.node[13].nic.mac1609_4 SentAcknowledgements_SCH 0
scalar SlicingScenario.node[13].nic.mac1609_4 SNIRLostPackets_SCH 0
scalar SlicingScenario.node[13].nic.mac1609_4 RXTXLostPackets_SCH 0
scalar SlicingScenario.node[13].nic.mac1609_4 TotalLostPackets_SCH 0
scalar SlicingScenario.node[13].nic.mac1609_4 DroppedPacketsInMac_SCH 0
scalar SlicingScenario.node[13].nic.mac1609_4 TooLittleTime_SCH 0
scalar SlicingScenario.node[13].nic.mac1609_4 TimesIntoBackoff_SCH 0
scalar SlicingScenario.node[13].nic.mac1609_4 SlotsBackoff_SCH 0
scalar SlicingScenario.node[13].nic.mac1609_4 NumInternalContention_SCH 0
scalar SlicingScenario.node[13].nic.mac1609_4 RemainingPacketsInEDCA_SCH 0
scalar SlicingScenario.node[13].nic.mac1609_4 totalBusyTime_SCH 12.447984
scalar SlicingScenario.node[13].veinsmobility startTime 14
scalar SlicingScenario.node[13].veinsmobility totalTime 91
scalar SlicingScenario.node[13].veinsmobility stopTime 106
scalar SlicingScenario.node[13].veinsmobility minSpeed 10.610718227355
scalar SlicingScenario.node[13].veinsmobility maxSpeed 11.101284460877
scalar SlicingScenario.node[13].veinsmobility totalDistance 978.03295208448
scalar SlicingScenario.node[13].veinsmobility totalCO2Emission 159.82072728812
scalar SlicingScenario.node[14].appl txPackets_97 0
scalar SlicingScenario.node[14].appl rxPackets_97 0
scalar SlicingScenario.node[14].appl rxNeighborPackets_97 0
scalar SlicingScenario.node[14].appl meanDelay_97 0
scalar SlicingScenario.node[14].appl meanJitter_97 0
scalar SlicingScenario.node[14].appl meanRxPacketSize_97 0
scalar SlicingScenario.node[14].appl meanTxPacketSize_97 0
scalar SlicingScenario.node[14].appl meanRxThroughput_97 0
scalar SlicingScenario.node[14].appl meanTxThroughput_97 0
scalar SlicingScenario.node[14].appl rxTimeOfService_97 0
scalar SlicingScenario.node[14].appl txTimeOfService_97 0
scalar SlicingScenario.node[14].appl txPackets_41_97 0
scalar SlicingScenario.node[14].appl rxPackets_41_97 178
scalar SlicingScenario.node[14].appl rxNeighborPackets_41_97 3198
scalar SlicingScenario.node[14].appl meanDelay_41_97 0.059839639445
scalar SlicingScenario.node[14].appl meanJitter_41_97 0.000383956183
scalar SlicingScenario.node[14].appl meanRxPacketSize_41_97 1510
scalar SlicingScenario.node[14].appl meanTxPacketSize_41_97 0
scalar SlicingScenario.node[14].appl meanRxThroughput_41_97 30369.682764195
scalar SlicingScenario.node[14].appl meanTxThroughput_41_97 0
scalar SlicingScenario.node[14].appl rxTimeOfService_41_97 70.802188376332
scalar SlicingScenario.node[14].appl txTimeOfService_41_97 0
scalar SlicingScenario.node[14].nic.phy80211p busyTime 0.13757008695653
scalar SlicingScenario.node[14].nic.phy80211p ncollisions 0
scalar SlicingScenario.node[14].nic.phy80211p UnderSensitivityPackets 723
scalar SlicingScenario.node[14].nic.mac1609_4 ReceivedUnicastPackets_CCH 0
scalar SlicingScenario.node[14].nic.mac1609_4 ReceivedBroadcasts_CCH 0
scalar SlicingScenario.node[14].nic.mac1609_4 SentPackets_CCH 0
scalar SlicingScenario.node[14].nic.mac1609_4 SentAcknowledgements_CCH 0
scalar SlicingScenario.node[14].nic.mac1609_4 SNIRLostPackets_CCH 0
scalar SlicingScenario.node[14].nic.mac1609_4 RXTXLostPackets_CCH 0
scalar SlicingScenario.node[14].nic.mac1609_4 TotalLostPackets_CCH 0
scalar SlicingScenario.node[14].nic.mac1609_4 DroppedPacketsInMac_CCH 0
scalar SlicingScenario.node[14].nic.mac1609_4 TooLittleTime_CCH 0
scalar SlicingScenario.node[14].nic.mac1609_4 TimesIntoBackoff_CCH 0
scalar SlicingScenario.node[14].nic.mac1609_4 SlotsBackoff_CCH 0
scalar SlicingScenario.node[14].nic.mac1609_4 NumInternalContention_CCH 0
scalar SlicingScenario.node[14].nic.mac1609_4 RemainingPacketsInEDCA_CCH 0
scalar SlicingScenario.node[14].nic.mac1609_4 totalBusyTime_CCH 0
scalar SlicingScenario.node[14].nic.mac1609_4 ReceivedUnicastPackets_SCH 0
scalar SlicingScenario.node[14].nic.mac1609_4 ReceivedBroadcasts_SCH 6132
scalar SlicingScenario.node[14].nic.mac1609_4 SentPackets_SCH 0
scalar SlicingScenario.node[14].nic.mac1609_4 SentAcknowledgements_SCH 0
scalar SlicingScenario.node[14].nic.mac1609_4 SNIRLostPackets_SCH 0
scalar SlicingScenario.node[14].nic.mac1609_4 RXTXLostPackets_SCH 0
scalar SlicingScenario.node[14].nic.mac1609_4 TotalLostPackets_SCH 0
scalar SlicingScenario.node[14].nic.mac1609_4 DroppedPacketsInMac_SCH 0
scalar SlicingScenario.node[14].nic.mac1609_4 TooLittleTime_SCH 0
scalar SlicingScenario.node[14].nic.mac1609_4 TimesIntoBackoff_SCH 0
scalar SlicingScenario.node[14].nic.mac1609_4 SlotsBackoff_SCH 0
scalar SlicingScenario.node[14].nic.mac1609_4 NumInternalContention_SCH 0
scalar SlicingScenario.node[14].nic.mac1609_4 RemainingPacketsInEDCA_SCH 0
scalar SlicingScenario.node[14].nic.mac1609_4 totalBusyTime_SCH 12.656448
scalar SlicingScenario.node[14].veinsmobility startTime 15
scalar SlicingScenario.node[14].veinsmobility totalTime 91
scalar SlicingScenario.node[14].veinsmobility stopTime 107
scalar SlicingScenario.node[14].veinsmobility minSpeed 10.610724272104
scalar SlicingScenario.node[14].veinsmobility maxSpeed 11.109222688959
scalar SlicingScenario.node[14].veinsmobility totalDistance 978.70470247379
scalar SlicingScenario.node[14].veinsmobility totalCO2Emission 159.09020019946
scalar SlicingScenario.node[15].appl txPackets_103 0
scalar SlicingScenario.node[15].appl rxPackets_103 0
scalar SlicingScenario.node[15].appl rxNeighborPackets_103 0
scalar SlicingScenario.node[15].appl meanDelay_103 0
scalar SlicingScenario.node[15].appl meanJitter_103 0
scalar SlicingScenario.node[15].appl meanRxPacketSize_103 0
scalar SlicingScenario.node[15].appl meanTxPacketSize_103 0
scalar SlicingScenario.node[15].appl meanRxThroughput_103 0
scalar SlicingScenario.node[15].appl meanTxThroughput_103 0
scalar SlicingScenario.node[15].appl rxTimeOfService_103 0
scalar SlicingScenario.node[15].appl txTimeOfService_103 0
scalar SlicingScenario.node[15].appl txPackets_41_103 0
scalar SlicingScenario.node[15].appl rxPackets_41_103 177
scalar SlicingScenario.node[15].appl rxNeighborPackets_41_103 3261
scalar SlicingScenario.node[15].appl meanDelay_41_103 0.002524272547
scalar SlicingScenario.node[15].appl meanJitter_41_103 3.760253e-05
scalar SlicingScenario.node[15].appl meanRxPacketSize_41_103 1510
scalar SlicingScenario.node[15].appl meanTxPacketSize_41_103 0
scalar SlicingScenario.node[15].appl meanRxThroughput_41_103 30370.549757624
scalar SlicingScenario.node[15].appl meanTxThroughput_41_103 0
scalar SlicingScenario.node[15].appl rxTimeOfService_41_103 70.402413425634
scalar SlicingScenario.node[15].appl txTimeOfService_41_103 0
scalar SlicingScenario.node[15].nic.phy80211p busyTime 0.13994817391306
scalar SlicingScenario.node[15].nic.phy80211p ncollisions 0
scalar SlicingScenario.node[15].nic.phy80211p UnderSensitivityPackets 732
scalar SlicingScenario.node[15].nic.mac1609_4 ReceivedUnicastPackets_CCH 0
scalar SlicingScenario.node[15].nic.mac1609_4 ReceivedBroadcasts_CCH 0
scalar SlicingScenario.node[15].nic.mac1609_4 SentPackets_CCH 0
scalar SlicingScenario.node[15].nic.mac1609_4 SentAcknowledgements_CCH 0
scalar SlicingScenario.node[15].nic.mac1609_4 SNIRLostPackets_CCH 0
scalar SlicingScenario.node[15].nic.mac1609_4 RXTXLostPackets_CCH 0
scalar SlicingScenario.node[15].nic.mac1609_4 TotalLostPackets_CCH 0
scalar SlicingScenario.node[15].nic.mac1609_4 DroppedPacketsInMac_CCH 0
scalar SlicingScenario.node[15].nic.mac1609_4 TooLittleTime_CCH 0
scalar SlicingScenario.node[15].nic.mac1609_4 TimesIntoBackoff_CCH 0
scalar SlicingScenario.node[15].nic.mac1609_4 SlotsBackoff_CCH 0
scalar SlicingScenario.node[15].nic.mac1609_4 NumInternalContention_CCH 0
scalar SlicingScenario.node[15].nic.mac1609_4 RemainingPacketsInEDCA_CCH 0
scalar SlicingScenario.node[15].nic.mac1609_4 totalBusyTime_CCH 0
scalar SlicingScenario.node[15].nic.mac1609_4 ReceivedUnicastPackets_SCH 0
scalar SlicingScenario.node[15].nic.mac1609_4 ReceivedBroadcasts_SCH 6238
scalar SlicingScenario.node[15].nic.mac1609_4 SentPackets_SCH 0
scalar SlicingScenario.node[15].nic.mac1609_4 SentAcknowledgements_SCH 0
scalar SlicingScenario.node[15].nic.mac1609_4 SNIRLostPackets_SCH 0
scalar SlicingScenario.node[15].nic.mac1609_4 RXTXLostPackets_SCH 0
scalar SlicingScenario.node[15].nic.mac1609_4 TotalLostPackets_SCH 0
scalar SlicingScenario.node[15].nic.mac1609_4 DroppedPacketsInMac_SCH 0
scalar SlicingScenario.node[15].nic.mac1609_4 TooLittleTime_SCH 0
scalar SlicingScenario.node[15].nic.mac1609_4 TimesIntoBackoff_SCH 0
scalar SlicingScenario.node[15].nic.mac1609_4 SlotsBackoff_SCH 0
scalar SlicingScenario.node[15].nic.mac1609_4 NumInternalContention_SCH 0
scalar SlicingScenario.node[15].nic.mac1609_4 RemainingPacketsInEDCA_SCH 0
scalar SlicingScenario.node[15].nic.mac1609_4 totalBusyTime_SCH 12.875232
scalar SlicingScenario.node[15].veinsmobility startTime 16
scalar SlicingScenario.node[15].veinsmobility totalTime 91
scalar SlicingScenario.node[15].veinsmobility stopTime 108
scalar SlicingScenario.node[15].veinsmobility minSpeed 10.620123502929
scalar SlicingScenario.node[15].veinsmobility maxSpeed 11.101297521046
scalar SlicingScenario.node[15].veinsmobility totalDistance 982.15402766835
scalar SlicingScenario.node[15].veinsmobility totalCO2Emission 158.95031830853
scalar SlicingScenario.node[16].appl txPackets_109 0
scalar SlicingScenario.node[16].appl rxPackets_109 0
scalar SlicingScenario.node[16].appl rxNeighborPackets_109 0
scalar SlicingScenario.node[16].appl meanDelay_109 0
scalar SlicingScenario.node[16].appl meanJitter_109 0
scalar SlicingScenario.node[16].appl meanRxPacketSize_109 0
scalar SlicingScenario.node[16].appl meanTxPacketSize_109 0
scalar SlicingScenario.node[16].appl meanRxThroughput_109 0
scalar SlicingScenario.node[16].appl meanTxThroughput_109 0
scalar SlicingScenario.node[16].appl rxTimeOfService_109 0
scalar SlicingScenario.node[16].appl txTimeOfService_109 0
scalar SlicingScenario.node[16].appl txPackets_41_109 0
scalar SlicingScenario.node[16].appl rxPackets_41_109 175
scalar SlicingScenario.node[16].appl rxNeighborPackets_41_109 3319
scalar SlicingScenario.node[16].appl meanDelay_41_109 0.003413289953
scalar SlicingScenario.node[16].appl meanJitter_41_109 6.4367917e-05
scalar SlicingScenario.node[16].appl meanRxPacketSize_41_109 1510
scalar SlicingScenario.node[16].appl meanTxPacketSize_41_109 0
scalar SlicingScenario.node[16].appl meanRxThroughput_41_109 30372.32674788
scalar SlicingScenario.node[16].appl meanTxThroughput_41_109 0
scalar SlicingScenario.node[16].appl rxTimeOfService_41_109 69.602833445995
scalar SlicingScenario.node[16].appl txTimeOfService_41_109 0
scalar SlicingScenario.node[16].nic.phy80211p busyTime 0.14219165217393
scalar SlicingScenario.node[16].nic.phy80211p ncollisions 0
scalar SlicingScenario.node[16].nic.phy80211p UnderSensitivityPackets 747
scalar SlicingScenario.node[16].nic.mac1609_4 ReceivedUnicastPackets_CCH 0
scalar SlicingScenario.node[16].nic.mac1609_4 ReceivedBroadcasts_CCH 0
scalar SlicingScenario.node[16].nic.mac1609_4 SentPackets_CCH 0
scalar SlicingScenario.node[16].nic.mac1609_4 SentAcknowledgements_CCH 0
scalar SlicingScenario.node[16].nic.mac1609_4 SNIRLostPackets_CCH 0
scalar SlicingScenario.node[16].nic.mac1609_4 RXTXLostPackets_CCH 0
scalar SlicingScenario.node[16].nic.mac1609_4 TotalLostPackets_CCH 0
scalar SlicingScenario.node[16].nic.mac1609_4 DroppedPacketsInMac_CCH 0
scalar SlicingScenario.node[16].nic.mac1609_4 TooLittleTime_CCH 0
scalar SlicingScenario.node[16].nic.mac1609_4 TimesIntoBackoff_CCH 0
scalar SlicingScenario.node[16].nic.mac1609_4 SlotsBackoff_CCH 0
scalar SlicingScenario.node[16].nic.mac1609_4 NumInternalContention_CCH 0
scalar SlicingScenario.node[16].nic.mac1609_4 RemainingPacketsInEDCA_CCH 0
scalar SlicingScenario.node[16].nic.mac1609_4 totalBusyTime_CCH 0
scalar SlicingScenario.node[16].nic.mac1609_4 ReceivedUnicastPackets_SCH 0
scalar SlicingScenario.node[16].nic.mac1609_4 ReceivedBroadcasts_SCH 6338
scalar SlicingScenario.node[16].nic.mac1609_4 SentPackets_SCH 0
scalar SlicingScenario.node[16].nic.mac1609_4 SentAcknowledgements_SCH 0
scalar SlicingScenario.node[16].nic.mac1609_4 SNIRLostPackets_SCH 0
scalar SlicingScenario.node[16].nic.mac1609_4 RXTXLostPackets_SCH 0
scalar SlicingScenario.node[16].nic.mac1609_4 TotalLostPackets_SCH 0
scalar SlicingScenario.node[16].nic.mac1609_4 DroppedPacketsInMac_SCH 0
scalar SlicingScenario.node[16].nic.mac1609_4 TooLittleTime_SCH 0
scalar SlicingScenario.node[16].nic.mac1609_4 TimesIntoBackoff_SCH 0
scalar SlicingScenario.node[16].nic.mac1609_4 SlotsBackoff_SCH 0
scalar SlicingScenario.node[16].nic.mac1609_4 NumInternalContention_SCH 0
scalar SlicingScenario.node[16].nic.mac1609_4 RemainingPacketsInEDCA_SCH 0
scalar SlicingScenario.node[16].nic.mac1609_4 totalBusyTime_SCH 13.081632
scalar SlicingScenario.node[16].veinsmobility startTime 17
scalar SlicingScenario.node[16].veinsmobility totalTime 91
scalar SlicingScenario.node[16].veinsmobility stopTime 109
scalar SlicingScenario.node[16].veinsmobility minSpeed 10.615473459256
scalar SlicingScenario.node[16].veinsmobility maxSpeed 11.108084317078
scalar SlicingScenario.node[16].veinsmobility totalDistance 978.67101996279
scalar SlicingScenario.node[16].veinsmobility totalCO2Emission 159.92623253342
scalar SlicingScenario.node[18].appl txPackets_121 0
scalar SlicingScenario.node[18].appl rxPackets_121 0
scalar SlicingScenario.node[18].appl rxNeighborPackets_121 0
scalar SlicingScenario.node[18].appl meanDelay_121 0
scalar SlicingScenario.node[18].appl meanJitter_121 0
scalar SlicingScenario.node[18].appl meanRxPacketSize_121 0
scalar SlicingScenario.node[18].appl meanTxPacketSize_121 0
scalar SlicingScenario.node[18].appl meanRxThroughput_121 0
scalar SlicingScenario.node[18].appl meanTxThroughput_121 0
scalar SlicingScenario.node[18].appl rxTimeOfService_121 0
scalar SlicingScenario.node[18].appl txTimeOfService_121 0
scalar SlicingScenario.node[18].appl txPackets_41_121 0
scalar SlicingScenario.node[18].appl rxPackets_41_121 168
scalar SlicingScenario.node[18].appl rxNeighborPackets_41_121 3446
scalar SlicingScenario.node[18].appl meanDelay_41_121 0.002661402244
scalar SlicingScenario.node[18].appl meanJitter_41_121 4.710418e-05
scalar SlicingScenario.node[18].appl meanRxPacketSize_41_121 1510
scalar SlicingScenario.node[18].appl meanTxPacketSize_41_121 0
scalar SlicingScenario.node[18].appl meanRxThroughput_41_121 30380.333721312
scalar SlicingScenario.node[18].appl meanTxThroughput_41_121 0
scalar SlicingScenario.node[18].appl rxTimeOfService_41_121 66.801109514355
scalar SlicingScenario.node[18].appl txTimeOfService_41_121 0
scalar SlicingScenario.node[18].nic.phy80211p busyTime 0.14685808695654
scalar SlicingScenario.node[18].nic.phy80211p ncollisions 0
scalar SlicingScenario.node[18].nic.phy80211p UnderSensitivityPackets 769
scalar SlicingScenario.node[18].nic.mac1609_4 ReceivedUnicastPackets_CCH 0
scalar SlicingScenario.node[18].nic.mac1609_4 ReceivedBroadcasts_CCH 0
scalar SlicingScenario.node[18].nic.mac1609_4 SentPackets_CCH 0
scalar SlicingScenario.node[18].nic.mac1609_4 SentAcknowledgements_CCH 0
scalar SlicingScenario.node[18].nic.mac1609_4 SNIRLostPackets_CCH 0
scalar SlicingScenario.node[18].nic.mac1609_4 RXTXLostPackets_CCH 0
scalar SlicingScenario.node[18].nic.mac1609_4 TotalLostPackets_CCH 0
scalar SlicingScenario.node[18].nic.mac1609_4 DroppedPacketsInMac_CCH 0
scalar SlicingScenario.node[18].nic.mac1609_4 TooLittleTime_CCH 0
scalar SlicingScenario.node[18].nic.mac1609_4 TimesIntoBackoff_CCH 0
scalar SlicingScenario.node[18].nic.mac1609_4 SlotsBackoff_CCH 0
scalar SlicingScenario.node[18].nic.mac1609_4 NumInternalContention_CCH 0
scalar SlicingScenario.node[18].nic.mac1609_4 RemainingPacketsInEDCA_CCH 0
scalar SlicingScenario.node[18].nic.mac1609_4 totalBusyTime_CCH 0
scalar SlicingScenario.node[18].nic.mac1609_4 ReceivedUnicastPackets_SCH 0
scalar SlicingScenario.node[18].nic.mac1609_4 ReceivedBroadcasts_SCH 6546
scalar SlicingScenario.node[18].nic.mac1609_4 SentPackets_SCH 0
scalar SlicingScenario.node[18].nic.mac1609_4 SentAcknowledgements_SCH 0
scalar SlicingScenario.node[18].nic.mac1609_4 SNIRLostPackets_SCH 0
scalar SlicingScenario.node[18].nic.mac1609_4 RXTXLostPackets_SCH 0
scalar SlicingScenario.node[18].nic.mac1609_4 TotalLostPackets_SCH 0
scalar SlicingScenario.node[18].nic.mac1609_4 DroppedPacketsInMac_SCH 0
scalar SlicingScenario.node[18].nic.mac1609_4 TooLittleTime_SCH 0
scalar SlicingScenario.node[18].nic.mac1609_4 TimesIntoBackoff_SCH 0
scalar SlicingScenario.node[18].nic.mac1609_4 SlotsBackoff_SCH 0
scalar SlicingScenario.node[18].nic.mac1609_4 NumInternalContention_SCH 0
scalar SlicingScenario.node[18].nic.mac1609_4 RemainingPacketsInEDCA_SCH 0
scalar SlicingScenario.node[18].nic.mac1609_4 totalBusyTime_SCH 13.510944
scalar SlicingScenario.node[18].veinsmobility startTime 19
scalar SlicingScenario.node[18].veinsmobility totalTime 91
scalar SlicingScenario.node[18].veinsmobility stopTime 111
scalar SlicingScenario.node[18].veinsmobility minSpeed 10.615036967923
scalar SlicingScenario.node[18].veinsmobility maxSpeed 11.096345627462
scalar SlicingScenario.node[18].veinsmobility totalDistance 976.18662671948
scalar SlicingScenario.node[18].veinsmobility totalCO2Emission 157.98728165185
scalar SlicingScenario.node[17].appl txPackets_115 0
scalar SlicingScenario.node[17].appl rxPackets_115 0
scalar SlicingScenario.node[17].appl rxNeighborPackets_115 0
scalar SlicingScenario.node[17].appl meanDelay_115 0
scalar SlicingScenario.node[17].appl meanJitter_115 0
scalar SlicingScenario.node[17].appl meanRxPacketSize_115 0
scalar SlicingScenario.node[17].appl meanTxPacketSize_115 0
scalar SlicingScenario.node[17].appl meanRxThroughput_115 0
scalar SlicingScenario.node[17].appl meanTxThroughput_115 0
scalar SlicingScenario.node[17].appl rxTimeOfService_115 0
scalar SlicingScenario.node[17].appl txTimeOfService_115 0
scalar SlicingScenario.node[17].appl txPackets_41_115 0
scalar SlicingScenario.node[17].appl rxPackets_41_115 174
scalar SlicingScenario.node[17].appl rxNeighborPackets_41_115 3440
scalar SlicingScenario.node[17].appl meanDelay_41_115 0.00207809722
scalar SlicingScenario.node[17].appl meanJitter_41_115 1.2028298e-05
scalar SlicingScenario.node[17].appl meanRxPacketSize_41_115 1510
scalar SlicingScenario.node[17].appl meanTxPacketSize_41_115 0
scalar SlicingScenario.node[17].appl meanRxThroughput_41_115 30374.566269331
scalar SlicingScenario.node[17].appl meanTxThroughput_41_115 0
scalar SlicingScenario.node[17].appl rxTimeOfService_41_115 69.200000466255
scalar SlicingScenario.node[17].appl txTimeOfService_41_115 0
scalar SlicingScenario.node[17].nic.phy80211p busyTime 0.14527896774195
scalar SlicingScenario.node[17].nic.phy80211p ncollisions 0
scalar SlicingScenario.node[17].nic.phy80211p UnderSensitivityPackets 792
scalar SlicingScenario.node[17].nic.mac1609_4 ReceivedUnicastPackets_CCH 0
scalar SlicingScenario.node[17].nic.mac1609_4 ReceivedBroadcasts_CCH 0
scalar SlicingScenario.node[17].nic.mac1609_4 SentPackets_CCH 0
scalar SlicingScenario.node[17].nic.mac1609_4 SentAcknowledgements_CCH 0
scalar SlicingScenario.node[17].nic.mac1609_4 SNIRLostPackets_CCH 0
scalar SlicingScenario.node[17].nic.mac1609_4 RXTXLostPackets_CCH 0
scalar SlicingScenario.node[17].nic.mac1609_4 TotalLostPackets_CCH 0
scalar SlicingScenario.node[17].nic.mac1609_4 DroppedPacketsInMac_CCH 0
scalar SlicingScenario.node[17].nic.mac1609_4 TooLittleTime_CCH 0
scalar SlicingScenario.node[17].nic.mac1609_4 TimesIntoBackoff_CCH 0
scalar SlicingScenario.node[17].nic.mac1609_4 SlotsBackoff_CCH 0
scalar SlicingScenario.node[17].nic.mac1609_4 NumInternalContention_CCH 0
scalar SlicingScenario.node[17].nic.mac1609_4 RemainingPacketsInEDCA_CCH 0
scalar SlicingScenario.node[17].nic.mac1609_4 totalBusyTime_CCH 0
scalar SlicingScenario.node[17].nic.mac1609_4 ReceivedUnicastPackets_SCH 0
scalar SlicingScenario.node[17].nic.mac1609_4 ReceivedBroadcasts_SCH 6546
scalar SlicingScenario.node[17].nic.mac1609_4 SentPackets_SCH 0
scalar SlicingScenario.node[17].nic.mac1609_4 SentAcknowledgements_SCH 0
scalar SlicingScenario.node[17].nic.mac1609_4 SNIRLostPackets_SCH 0
scalar SlicingScenario.node[17].nic.mac1609_4 RXTXLostPackets_SCH 0
scalar SlicingScenario.node[17].nic.mac1609_4 TotalLostPackets_SCH 0
scalar SlicingScenario.node[17].nic.mac1609_4 DroppedPacketsInMac_SCH 0
scalar SlicingScenario.node[17].nic.mac1609_4 TooLittleTime_SCH 0
scalar SlicingScenario.node[17].nic.mac1609_4 TimesIntoBackoff_SCH 0
scalar SlicingScenario.node[17].nic.mac1609_4 SlotsBackoff_SCH 0
scalar SlicingScenario.node[17].nic.mac1609_4 NumInternalContention_SCH 0
scalar SlicingScenario.node[17].nic.mac1609_4 RemainingPacketsInEDCA_SCH 0
scalar SlicingScenario.node[17].nic.mac1609_4 totalBusyTime_SCH 13.510944
scalar SlicingScenario.node[17].veinsmobility startTime 18
scalar SlicingScenario.node[17].veinsmobility totalTime 92
scalar SlicingScenario.node[17].veinsmobility stopTime 111
scalar SlicingScenario.node[17].veinsmobility minSpeed 7.595843948585
scalar SlicingScenario.node[17].veinsmobility maxSpeed 11.108760460643
scalar SlicingScenario.node[17].veinsmobility totalDistance 982.28242604951
scalar SlicingScenario.node[17].veinsmobility totalCO2Emission 167.73379014413
scalar SlicingScenario.node[19].appl txPackets_127 0
scalar SlicingScenario.node[19].appl rxPackets_127 0
scalar SlicingScenario.node[19].appl rxNeighborPackets_127 0
scalar SlicingScenario.node[19].appl meanDelay_127 0
scalar SlicingScenario.node[19].appl meanJitter_127 0
scalar SlicingScenario.node[19].appl meanRxPacketSize_127 0
scalar SlicingScenario.node[19].appl meanTxPacketSize_127 0
scalar SlicingScenario.node[19].appl meanRxThroughput_127 0
scalar SlicingScenario.node[19].appl meanTxThroughput_127 0
scalar SlicingScenario.node[19].appl rxTimeOfService_127 0
scalar SlicingScenario.node[19].appl txTimeOfService_127 0
scalar SlicingScenario.node[19].appl txPackets_40_127 0
scalar SlicingScenario.node[19].appl rxPackets_40_127 169
scalar SlicingScenario.node[19].appl rxNeighborPackets_40_127 2869
scalar SlicingScenario.node[19].appl meanDelay_40_127 0.002073649878
scalar SlicingScenario.node[19].appl meanJitter_40_127 1.2874821e-05
scalar SlicingScenario.node[19].appl meanRxPacketSize_40_127 1510
scalar SlicingScenario.node[19].appl meanTxPacketSize_40_127 0
scalar SlicingScenario.node[19].appl meanRxThroughput_40_127 30379.750794878
scalar SlicingScenario.node[19].appl meanTxThroughput_40_127 0
scalar SlicingScenario.node[19].appl rxTimeOfService_40_127 67.200024575061
scalar SlicingScenario.node[19].appl txTimeOfService_40_127 0
scalar SlicingScenario.node[19].nic.phy80211p busyTime 0.1505388387097
scalar SlicingScenario.node[19].nic.phy80211p ncollisions 0
scalar SlicingScenario.node[19].nic.phy80211p UnderSensitivityPackets 789
scalar SlicingScenario.node[19].nic.mac1609_4 ReceivedUnicastPackets_CCH 0
scalar SlicingScenario.node[19].nic.mac1609_4 ReceivedBroadcasts_CCH 0
[...]
scalar SlicingScenario.rsu[0].appl rxNeighborPackets_41_175 0
scalar SlicingScenario.rsu[0].appl meanDelay_41_175 0
scalar SlicingScenario.rsu[0].appl meanJitter_41_175 0
scalar SlicingScenario.rsu[0].appl meanRxPacketSize_41_175 0
scalar SlicingScenario.rsu[0].appl meanTxPacketSize_41_175 1510
scalar SlicingScenario.rsu[0].appl meanRxThroughput_41_175 0
scalar SlicingScenario.rsu[0].appl meanTxThroughput_41_175 30227.25631769
scalar SlicingScenario.rsu[0].appl rxTimeOfService_41_175 0
scalar SlicingScenario.rsu[0].appl txTimeOfService_41_175 443.2
scalar SlicingScenario.rsu[0].appl txPackets_41_181 1104
scalar SlicingScenario.rsu[0].appl rxPackets_41_181 0
scalar SlicingScenario.rsu[0].appl rxNeighborPackets_41_181 0
scalar SlicingScenario.rsu[0].appl meanDelay_41_181 0
scalar SlicingScenario.rsu[0].appl meanJitter_41_181 0
scalar SlicingScenario.rsu[0].appl meanRxPacketSize_41_181 0
scalar SlicingScenario.rsu[0].appl meanTxPacketSize_41_181 1510
scalar SlicingScenario.rsu[0].appl meanRxThroughput_41_181 0
scalar SlicingScenario.rsu[0].appl meanTxThroughput_41_181 30227.379873073
scalar SlicingScenario.rsu[0].appl rxTimeOfService_41_181 0
scalar SlicingScenario.rsu[0].appl txTimeOfService_41_181 441.2
scalar SlicingScenario.rsu[0].appl txPackets_41_187 1099
scalar SlicingScenario.rsu[0].appl rxPackets_41_187 0
scalar SlicingScenario.rsu[0].appl rxNeighborPackets_41_187 0
scalar SlicingScenario.rsu[0].appl meanDelay_41_187 0
scalar SlicingScenario.rsu[0].appl meanJitter_41_187 0
scalar SlicingScenario.rsu[0].appl meanRxPacketSize_41_187 0
scalar SlicingScenario.rsu[0].appl meanTxPacketSize_41_187 1510
scalar SlicingScenario.rsu[0].appl meanRxThroughput_41_187 0
scalar SlicingScenario.rsu[0].appl meanTxThroughput_41_187 30227.504553734
scalar SlicingScenario.rsu[0].appl rxTimeOfService_41_187 0
scalar SlicingScenario.rsu[0].appl txTimeOfService_41_187 439.2
scalar SlicingScenario.rsu[0].appl txPackets_41_211 1080
scalar SlicingScenario.rsu[0].appl rxPackets_41_211 0
scalar SlicingScenario.rsu[0].appl rxNeighborPackets_41_211 0
scalar SlicingScenario.rsu[0].appl meanDelay_41_211 0
scalar SlicingScenario.rsu[0].appl meanJitter_41_211 0
scalar SlicingScenario.rsu[0].appl meanRxPacketSize_41_211 0
scalar SlicingScenario.rsu[0].appl meanTxPacketSize_41_211 1510
scalar SlicingScenario.rsu[0].appl meanRxThroughput_41_211 0
scalar SlicingScenario.rsu[0].appl meanTxThroughput_41_211 30227.988878591
scalar SlicingScenario.rsu[0].appl rxTimeOfService_41_211 0
scalar SlicingScenario.rsu[0].appl txTimeOfService_41_211 431.6
scalar SlicingScenario.rsu[0].appl txPackets_41_217 1074
scalar SlicingScenario.rsu[0].appl rxPackets_41_217 0
scalar SlicingScenario.rsu[0].appl rxNeighborPackets_41_217 0
scalar SlicingScenario.rsu[0].appl meanDelay_41_217 0
scalar SlicingScenario.rsu[0].appl meanJitter_41_217 0
scalar SlicingScenario.rsu[0].appl meanRxPacketSize_41_217 0
scalar SlicingScenario.rsu[0].appl meanTxPacketSize_41_217 1510
scalar SlicingScenario.rsu[0].appl meanRxThroughput_41_217 0
scalar SlicingScenario.rsu[0].appl meanTxThroughput_41_217 30228.145386766
scalar SlicingScenario.rsu[0].appl rxTimeOfService_41_217 0
scalar SlicingScenario.rsu[0].appl txTimeOfService_41_217 429.2
scalar SlicingScenario.rsu[0].appl txPackets_41_235 1058
scalar SlicingScenario.rsu[0].appl rxPackets_41_235 0
scalar SlicingScenario.rsu[0].appl rxNeighborPackets_41_235 0
scalar SlicingScenario.rsu[0].appl meanDelay_41_235 0
scalar SlicingScenario.rsu[0].appl meanJitter_41_235 0
scalar SlicingScenario.rsu[0].appl meanRxPacketSize_41_235 0
scalar SlicingScenario.rsu[0].appl meanTxPacketSize_41_235 1510
scalar SlicingScenario.rsu[0].appl meanRxThroughput_41_235 0
scalar SlicingScenario.rsu[0].appl meanTxThroughput_41_235 30228.571428571
scalar SlicingScenario.rsu[0].appl rxTimeOfService_41_235 0
scalar SlicingScenario.rsu[0].appl txTimeOfService_41_235 422.8
scalar SlicingScenario.rsu[0].appl txPackets_41_253 1044
scalar SlicingScenario.rsu[0].appl rxPackets_41_253 0
scalar SlicingScenario.rsu[0].appl rxNeighborPackets_41_253 0
scalar SlicingScenario.rsu[0].appl meanDelay_41_253 0
scalar SlicingScenario.rsu[0].appl meanJitter_41_253 0
scalar SlicingScenario.rsu[0].appl meanRxPacketSize_41_253 0
scalar SlicingScenario.rsu[0].appl meanTxPacketSize_41_253 1510
scalar SlicingScenario.rsu[0].appl meanRxThroughput_41_253 0
scalar SlicingScenario.rsu[0].appl meanTxThroughput_41_253 30228.95493768
scalar SlicingScenario.rsu[0].appl rxTimeOfService_41_253 0
scalar SlicingScenario.rsu[0].appl txTimeOfService_41_253 417.2
scalar SlicingScenario.rsu[0].appl txPackets_41_265 1035
scalar SlicingScenario.rsu[0].appl rxPackets_41_265 0
scalar SlicingScenario.rsu[0].appl rxNeighborPackets_41_265 0
scalar SlicingScenario.rsu[0].appl meanDelay_41_265 0
scalar SlicingScenario.rsu[0].appl meanJitter_41_265 0
scalar SlicingScenario.rsu[0].appl meanRxPacketSize_41_265 0
scalar SlicingScenario.rsu[0].appl meanTxPacketSize_41_265 1510
scalar SlicingScenario.rsu[0].appl meanRxThroughput_41_265 0
scalar SlicingScenario.rsu[0].appl meanTxThroughput_41_265 30229.20696325
scalar SlicingScenario.rsu[0].appl rxTimeOfService_41_265 0
scalar SlicingScenario.rsu[0].appl txTimeOfService_41_265 413.6
scalar SlicingScenario.rsu[0].appl txPackets_41_271 1030
scalar SlicingScenario.rsu[0].appl rxPackets_41_271 0
scalar SlicingScenario.rsu[0].appl rxNeighborPackets_41_271 0
scalar SlicingScenario.rsu[0].appl meanDelay_41_271 0
scalar SlicingScenario.rsu[0].appl meanJitter_41_271 0
scalar SlicingScenario.rsu[0].appl meanRxPacketSize_41_271 0
scalar SlicingScenario.rsu[0].appl meanTxPacketSize_41_271 1510
scalar SlicingScenario.rsu[0].appl meanRxThroughput_41_271 0
scalar SlicingScenario.rsu[0].appl meanTxThroughput_41_271 30229.34888241
scalar SlicingScenario.rsu[0].appl rxTimeOfService_41_271 0
scalar SlicingScenario.rsu[0].appl txTimeOfService_41_271 411.6
scalar SlicingScenario.rsu[0].appl txPackets_41_289 1014
scalar SlicingScenario.rsu[0].appl rxPackets_41_289 0
scalar SlicingScenario.rsu[0].appl rxNeighborPackets_41_289 0
scalar SlicingScenario.rsu[0].appl meanDelay_41_289 0
scalar SlicingScenario.rsu[0].appl meanJitter_41_289 0
scalar SlicingScenario.rsu[0].appl meanRxPacketSize_41_289 0
scalar SlicingScenario.rsu[0].appl meanTxPacketSize_41_289 1510
scalar SlicingScenario.rsu[0].appl meanRxThroughput_41_289 0
scalar SlicingScenario.rsu[0].appl meanTxThroughput_41_289 30229.812438302
scalar SlicingScenario.rsu[0].appl rxTimeOfService_41_289 0
scalar SlicingScenario.rsu[0].appl txTimeOfService_41_289 405.2
scalar SlicingScenario.rsu[0].appl txPackets_41_295 1010
scalar SlicingScenario.rsu[0].appl rxPackets_41_295 0
scalar SlicingScenario.rsu[0].appl rxNeighborPackets_41_295 0
scalar SlicingScenario.rsu[0].appl meanDelay_41_295 0
scalar SlicingScenario.rsu[0].appl meanJitter_41_295 0
scalar SlicingScenario.rsu[0].appl meanRxPacketSize_41_295 0
scalar SlicingScenario.rsu[0].appl meanTxPacketSize_41_295 1510
scalar SlicingScenario.rsu[0].appl meanRxThroughput_41_295 0
scalar SlicingScenario.rsu[0].appl meanTxThroughput_41_295 30229.930624381
scalar SlicingScenario.rsu[0].appl rxTimeOfService_41_295 0
scalar SlicingScenario.rsu[0].appl txTimeOfService_41_295 403.6
scalar SlicingScenario.rsu[0].appl txPackets_41_313 993
scalar SlicingScenario.rsu[0].appl rxPackets_41_313 0
scalar SlicingScenario.rsu[0].appl rxNeighborPackets_41_313 0
scalar SlicingScenario.rsu[0].appl meanDelay_41_313 0
scalar SlicingScenario.rsu[0].appl meanJitter_41_313 0
scalar SlicingScenario.rsu[0].appl meanRxPacketSize_41_313 0
scalar SlicingScenario.rsu[0].appl meanTxPacketSize_41_313 1510
scalar SlicingScenario.rsu[0].appl meanRxThroughput_41_313 0
scalar SlicingScenario.rsu[0].appl meanTxThroughput_41_313 30230.443548387
scalar SlicingScenario.rsu[0].appl rxTimeOfService_41_313 0
scalar SlicingScenario.rsu[0].appl txTimeOfService_41_313 396.8
scalar SlicingScenario.rsu[0].appl txPackets_41_337 974
scalar SlicingScenario.rsu[0].appl rxPackets_41_337 0
scalar SlicingScenario.rsu[0].appl rxNeighborPackets_41_337 0
scalar SlicingScenario.rsu[0].appl meanDelay_41_337 0
scalar SlicingScenario.rsu[0].appl meanJitter_41_337 0
scalar SlicingScenario.rsu[0].appl meanRxPacketSize_41_337 0
scalar SlicingScenario.rsu[0].appl meanTxPacketSize_41_337 1510
scalar SlicingScenario.rsu[0].appl meanRxThroughput_41_337 0
scalar SlicingScenario.rsu[0].appl meanTxThroughput_41_337 30231.038026721
scalar SlicingScenario.rsu[0].appl rxTimeOfService_41_337 0
scalar SlicingScenario.rsu[0].appl txTimeOfService_41_337 389.2
scalar SlicingScenario.rsu[0].appl txPackets_41_343 970
scalar SlicingScenario.rsu[0].appl rxPackets_41_343 0
scalar SlicingScenario.rsu[0].appl rxNeighborPackets_41_343 0
scalar SlicingScenario.rsu[0].appl meanDelay_41_343 0
scalar SlicingScenario.rsu[0].appl meanJitter_41_343 0
scalar SlicingScenario.rsu[0].appl meanRxPacketSize_41_343 0
scalar SlicingScenario.rsu[0].appl meanTxPacketSize_41_343 1510
scalar SlicingScenario.rsu[0].appl meanRxThroughput_41_343 0
scalar SlicingScenario.rsu[0].appl meanTxThroughput_41_343 30231.166150671
scalar SlicingScenario.rsu[0].appl rxTimeOfService_41_343 0
scalar SlicingScenario.rsu[0].appl txTimeOfService_41_343 387.6
scalar SlicingScenario.rsu[0].appl txPackets_41_349 964
scalar SlicingScenario.rsu[0].appl rxPackets_41_349 0
scalar SlicingScenario.rsu[0].appl rxNeighborPackets_41_349 0
scalar SlicingScenario.rsu[0].appl meanDelay_41_349 0
scalar SlicingScenario.rsu[0].appl meanJitter_41_349 0
scalar SlicingScenario.rsu[0].appl meanRxPacketSize_41_349 0
scalar SlicingScenario.rsu[0].appl meanTxPacketSize_41_349 1510
scalar SlicingScenario.rsu[0].appl meanRxThroughput_41_349 0
scalar SlicingScenario.rsu[0].appl meanTxThroughput_41_349 30231.360332295
scalar SlicingScenario.rsu[0].appl rxTimeOfService_41_349 0
scalar SlicingScenario.rsu[0].appl txTimeOfService_41_349 385.2
scalar SlicingScenario.rsu[0].appl txPackets_41_355 960
scalar SlicingScenario.rsu[0].appl rxPackets_41_355 0
scalar SlicingScenario.rsu[0].appl rxNeighborPackets_41_355 0
scalar SlicingScenario.rsu[0].appl meanDelay_41_355 0
scalar SlicingScenario.rsu[0].appl meanJitter_41_355 0
scalar SlicingScenario.rsu[0].appl meanRxPacketSize_41_355 0
scalar SlicingScenario.rsu[0].appl meanTxPacketSize_41_355 1510
scalar SlicingScenario.rsu[0].appl meanRxThroughput_41_355 0
scalar SlicingScenario.rsu[0].appl meanTxThroughput_41_355 30231.491136601
scalar SlicingScenario.rsu[0].appl rxTimeOfService_41_355 0
scalar SlicingScenario.rsu[0].appl txTimeOfService_41_355 383.6
scalar SlicingScenario.rsu[0].appl txPackets_41_373 944
scalar SlicingScenario.rsu[0].appl rxPackets_41_373 0
scalar SlicingScenario.rsu[0].appl rxNeighborPackets_41_373 0
scalar SlicingScenario.rsu[0].appl meanDelay_41_373 0
scalar SlicingScenario.rsu[0].appl meanJitter_41_373 0
scalar SlicingScenario.rsu[0].appl meanRxPacketSize_41_373 0
scalar SlicingScenario.rsu[0].appl meanTxPacketSize_41_373 1510
scalar SlicingScenario.rsu[0].appl meanRxThroughput_41_373 0
scalar SlicingScenario.rsu[0].appl meanTxThroughput_41_373 30232.025450689
scalar SlicingScenario.rsu[0].appl rxTimeOfService_41_373 0
scalar SlicingScenario.rsu[0].appl txTimeOfService_41_373 377.2
scalar SlicingScenario.rsu[0].appl txPackets_41_385 935
scalar SlicingScenario.rsu[0].appl rxPackets_41_385 0
scalar SlicingScenario.rsu[0].appl rxNeighborPackets_41_385 0
scalar SlicingScenario.rsu[0].appl meanDelay_41_385 0
scalar SlicingScenario.rsu[0].appl meanJitter_41_385 0
scalar SlicingScenario.rsu[0].appl meanRxPacketSize_41_385 0
scalar SlicingScenario.rsu[0].appl meanTxPacketSize_41_385 1510
scalar SlicingScenario.rsu[0].appl meanRxThroughput_41_385 0
scalar SlicingScenario.rsu[0].appl meanTxThroughput_41_385 30232.334047109
scalar SlicingScenario.rsu[0].appl rxTimeOfService_41_385 0
scalar SlicingScenario.rsu[0].appl txTimeOfService_41_385 373.6
scalar SlicingScenario.rsu[0].appl txPackets_41_391 929
scalar SlicingScenario.rsu[0].appl rxPackets_41_391 0
scalar SlicingScenario.rsu[0].appl rxNeighborPackets_41_391 0
scalar SlicingScenario.rsu[0].appl meanDelay_41_391 0
scalar SlicingScenario.rsu[0].appl meanJitter_41_391 0
scalar SlicingScenario.rsu[0].appl meanRxPacketSize_41_391 0
scalar SlicingScenario.rsu[0].appl meanTxPacketSize_41_391 1510
scalar SlicingScenario.rsu[0].appl meanRxThroughput_41_391 0
scalar SlicingScenario.rsu[0].appl meanTxThroughput_41_391 30232.543103448
scalar SlicingScenario.rsu[0].appl rxTimeOfService_41_391 0
scalar SlicingScenario.rsu[0].appl txTimeOfService_41_391 371.2
scalar SlicingScenario.rsu[0].appl txPackets_41_397 923
scalar SlicingScenario.rsu[0].appl rxPackets_41_397 0
scalar SlicingScenario.rsu[0].appl rxNeighborPackets_41_397 0
scalar SlicingScenario.rsu[0].appl meanDelay_41_397 0
scalar SlicingScenario.rsu[0].appl meanJitter_41_397 0
scalar SlicingScenario.rsu[0].appl meanRxPacketSize_41_397 0
scalar SlicingScenario.rsu[0].appl meanTxPacketSize_41_397 1510
scalar SlicingScenario.rsu[0].appl meanRxThroughput_41_397 0
scalar SlicingScenario.rsu[0].appl meanTxThroughput_41_397 30232.754880694
scalar SlicingScenario.rsu[0].appl rxTimeOfService_41_397 0
scalar SlicingScenario.rsu[0].appl txTimeOfService_41_397 368.8
scalar SlicingScenario.rsu[0].appl txPackets_41_403 919
scalar SlicingScenario.rsu[0].appl rxPackets_41_403 0
scalar SlicingScenario.rsu[0].appl rxNeighborPackets_41_403 0
scalar SlicingScenario.rsu[0].appl meanDelay_41_403 0
scalar SlicingScenario.rsu[0].appl meanJitter_41_403 0
scalar SlicingScenario.rsu[0].appl meanRxPacketSize_41_403 0
scalar SlicingScenario.rsu[0].appl meanTxPacketSize_41_403 1510
scalar SlicingScenario.rsu[0].appl meanRxThroughput_41_403 0
scalar SlicingScenario.rsu[0].appl meanTxThroughput_41_403 30232.897603486
scalar SlicingScenario.rsu[0].appl rxTimeOfService_41_403 0
scalar SlicingScenario.rsu[0].appl txTimeOfService_41_403 367.2
scalar SlicingScenario.rsu[0].appl txPackets_41_409 913
scalar SlicingScenario.rsu[0].appl rxPackets_41_409 0
scalar SlicingScenario.rsu[0].appl rxNeighborPackets_41_409 0
scalar SlicingScenario.rsu[0].appl meanDelay_41_409 0
scalar SlicingScenario.rsu[0].appl meanJitter_41_409 0
scalar SlicingScenario.rsu[0].appl meanRxPacketSize_41_409 0
scalar SlicingScenario.rsu[0].appl meanTxPacketSize_41_409 1510
scalar SlicingScenario.rsu[0].appl meanRxThroughput_41_409 0
scalar SlicingScenario.rsu[0].appl meanTxThroughput_41_409 30233.114035088
scalar SlicingScenario.rsu[0].appl rxTimeOfService_41_409 0
scalar SlicingScenario.rsu[0].appl txTimeOfService_41_409 364.8
scalar SlicingScenario.rsu[0].appl txPackets_41_415 909
scalar SlicingScenario.rsu[0].appl rxPackets_41_415 0
scalar SlicingScenario.rsu[0].appl rxNeighborPackets_41_415 0
scalar SlicingScenario.rsu[0].appl meanDelay_41_415 0
scalar SlicingScenario.rsu[0].appl meanJitter_41_415 0
scalar SlicingScenario.rsu[0].appl meanRxPacketSize_41_415 0
scalar SlicingScenario.rsu[0].appl meanTxPacketSize_41_415 1510
scalar SlicingScenario.rsu[0].appl meanRxThroughput_41_415 0
scalar SlicingScenario.rsu[0].appl meanTxThroughput_41_415 30233.259911894
scalar SlicingScenario.rsu[0].appl rxTimeOfService_41_415 0
scalar SlicingScenario.rsu[0].appl txTimeOfService_41_415 363.2
scalar SlicingScenario.rsu[0].appl txPackets_41_427 898
scalar SlicingScenario.rsu[0].appl rxPackets_41_427 0
scalar SlicingScenario.rsu[0].appl rxNeighborPackets_41_427 0
scalar SlicingScenario.rsu[0].appl meanDelay_41_427 0
scalar SlicingScenario.rsu[0].appl meanJitter_41_427 0
scalar SlicingScenario.rsu[0].appl meanRxPacketSize_41_427 0
scalar SlicingScenario.rsu[0].appl meanTxPacketSize_41_427 1510
scalar SlicingScenario.rsu[0].appl meanRxThroughput_41_427 0
scalar SlicingScenario.rsu[0].appl meanTxThroughput_41_427 30233.667781494
scalar SlicingScenario.rsu[0].appl rxTimeOfService_41_427 0
scalar SlicingScenario.rsu[0].appl txTimeOfService_41_427 358.8
scalar SlicingScenario.rsu[0].appl txPackets_41_451 879
scalar SlicingScenario.rsu[0].appl rxPackets_41_451 0
scalar SlicingScenario.rsu[0].appl rxNeighborPackets_41_451 0
scalar SlicingScenario.rsu[0].appl meanDelay_41_451 0
scalar SlicingScenario.rsu[0].appl meanJitter_41_451 0
scalar SlicingScenario.rsu[0].appl meanRxPacketSize_41_451 0
scalar SlicingScenario.rsu[0].appl meanTxPacketSize_41_451 1510
scalar SlicingScenario.rsu[0].appl meanRxThroughput_41_451 0
scalar SlicingScenario.rsu[0].appl meanTxThroughput_41_451 30234.396355353
scalar SlicingScenario.rsu[0].appl rxTimeOfService_41_451 0
scalar SlicingScenario.rsu[0].appl txTimeOfService_41_451 351.2
scalar SlicingScenario.rsu[0].appl txPackets_41_457 875
scalar SlicingScenario.rsu[0].appl rxPackets_41_457 0
scalar SlicingScenario.rsu[0].appl rxNeighborPackets_41_457 0
scalar SlicingScenario.rsu[0].appl meanDelay_41_457 0
scalar SlicingScenario.rsu[0].appl meanJitter_41_457 0
scalar SlicingScenario.rsu[0].appl meanRxPacketSize_41_457 0
scalar SlicingScenario.rsu[0].appl meanTxPacketSize_41_457 1510
scalar SlicingScenario.rsu[0].appl meanRxThroughput_41_457 0
scalar SlicingScenario.rsu[0].appl meanTxThroughput_41_457 30234.553775744
scalar SlicingScenario.rsu[0].appl rxTimeOfService_41_457 0
scalar SlicingScenario.rsu[0].appl txTimeOfService_41_457 349.6
scalar SlicingScenario.rsu[0].appl txPackets_41_463 868
scalar SlicingScenario.rsu[0].appl rxPackets_41_463 0
scalar SlicingScenario.rsu[0].appl rxNeighborPackets_41_463 0
scalar SlicingScenario.rsu[0].appl meanDelay_41_463 0
scalar SlicingScenario.rsu[0].appl meanJitter_41_463 0
scalar SlicingScenario.rsu[0].appl meanRxPacketSize_41_463 0
scalar SlicingScenario.rsu[0].appl meanTxPacketSize_41_463 1510
scalar SlicingScenario.rsu[0].appl meanRxThroughput_41_463 0
scalar SlicingScenario.rsu[0].appl meanTxThroughput_41_463 30234.832756632
scalar SlicingScenario.rsu[0].appl rxTimeOfService_41_463 0
scalar SlicingScenario.rsu[0].appl txTimeOfService_41_463 346.8
scalar SlicingScenario.rsu[0].nic.phy80211p busyTime 0
scalar SlicingScenario.rsu[0].nic.phy80211p ncollisions 0
scalar SlicingScenario.rsu[0].nic.phy80211p UnderSensitivityPackets 0
scalar SlicingScenario.rsu[0].nic.mac1609_4 ReceivedUnicastPackets_CCH 0
scalar SlicingScenario.rsu[0].nic.mac1609_4 ReceivedBroadcasts_CCH 0
scalar SlicingScenario.rsu[0].nic.mac1609_4 SentPackets_CCH 0
scalar SlicingScenario.rsu[0].nic.mac1609_4 SentAcknowledgements_CCH 0
scalar SlicingScenario.rsu[0].nic.mac1609_4 SNIRLostPackets_CCH 0
scalar SlicingScenario.rsu[0].nic.mac1609_4 RXTXLostPackets_CCH 0
scalar SlicingScenario.rsu[0].nic.mac1609_4 TotalLostPackets_CCH 0
scalar SlicingScenario.rsu[0].nic.mac1609_4 DroppedPacketsInMac_CCH 0
scalar SlicingScenario.rsu[0].nic.mac1609_4 TooLittleTime_CCH 0
scalar SlicingScenario.rsu[0].nic.mac1609_4 TimesIntoBackoff_CCH 0
scalar SlicingScenario.rsu[0].nic.mac1609_4 SlotsBackoff_CCH 0
scalar SlicingScenario.rsu[0].nic.mac1609_4 NumInternalContention_CCH 0
scalar SlicingScenario.rsu[0].nic.mac1609_4 RemainingPacketsInEDCA_CCH 0
scalar SlicingScenario.rsu[0].nic.mac1609_4 totalBusyTime_CCH 0
scalar SlicingScenario.rsu[0].nic.mac1609_4 ReceivedUnicastPackets_SCH 0
scalar SlicingScenario.rsu[0].nic.mac1609_4 ReceivedBroadcasts_SCH 0
scalar SlicingScenario.rsu[0].nic.mac1609_4 SentPackets_SCH 83722
scalar SlicingScenario.rsu[0].nic.mac1609_4 SentAcknowledgements_SCH 0
scalar SlicingScenario.rsu[0].nic.mac1609_4 SNIRLostPackets_SCH 0
scalar SlicingScenario.rsu[0].nic.mac1609_4 RXTXLostPackets_SCH 0
scalar SlicingScenario.rsu[0].nic.mac1609_4 TotalLostPackets_SCH 0
scalar SlicingScenario.rsu[0].nic.mac1609_4 DroppedPacketsInMac_SCH 0
scalar SlicingScenario.rsu[0].nic.mac1609_4 TooLittleTime_SCH 53518
scalar SlicingScenario.rsu[0].nic.mac1609_4 TimesIntoBackoff_SCH 87881
scalar SlicingScenario.rsu[0].nic.mac1609_4 SlotsBackoff_SCH 292958
scalar SlicingScenario.rsu[0].nic.mac1609_4 NumInternalContention_SCH 0
scalar SlicingScenario.rsu[0].nic.mac1609_4 RemainingPacketsInEDCA_SCH 2
scalar SlicingScenario.rsu[0].nic.mac1609_4 totalBusyTime_SCH 172.88593

