version 2
run General-295-20190223-14:37:41-12753
attr configname General
attr datetime 20190223-14:37:41
attr experiment General
attr inifile omnetpp.ini
attr iterationvars "$vehicles=80, $msgSizeA=1500B, $serviceMsgInterval=0.4s"
attr iterationvarsf vehicles=80,msgSizeA=1500B,serviceMsgInterval=0.4s-
attr measurement "$vehicles=80, $msgSizeA=1500B, $serviceMsgInterval=0.4s"
attr network com.liborio.slicing.SlicingScenario
attr processid 12753
attr repetition 5
attr replication #5
attr resultdir results
attr runnumber 295
attr seedset 5
itervar msgSizeA 1500B
itervar serviceMsgInterval 0.4s
itervar vehicles 80
param **.debug false
param **.coreDebug false
param *.playgroundSizeX 1200m
param *.playgroundSizeY 1200m
param *.playgroundSizeZ 50m
param *.annotations.draw true
param *.manager.updateInterval 1s
param *.manager.host "\"localhost\""
param *.manager.port 9999
param *.manager.autoShutdown true
param *.manager.launchConfig "xmldoc(\"highway-\"+string(80)+\".launchd.xml\")"
param *.connectionManager.sendDirect true
param *.connectionManager.maxInterfDist 2600m
param *.connectionManager.drawMaxIntfDist false
param *.rsu[*].applType "\"RSUApp\""
param *.rsu[*].appl.headerLength "80 bit"
param *.rsu[*].appl.sendBeacons false
param *.rsu[*].appl.dataOnSch true
param *.rsu[*].appl.beaconInterval 1s
param *.rsu[*].appl.beaconUserPriority 7
param *.rsu[*].appl.dataUserPriority 5
param *.rsu[*].appl.entMsgADataLengthBytes 1500B
param *.rsu[*].appl.entMsgAUserPriority 4
param *.rsu[*].appl.entMsgAInterval 0.4s
param *.rsu[*].appl.entMsgBDataLengthBytes 1500B
param *.rsu[*].appl.entMsgBUserPriority 4
param *.rsu[*].appl.entMsgBInterval 0.4s
param *.rsu[*].nic.mac1609_4.useServiceChannel true
param *.rsu[*].nic.mac1609_4.txPower 20mW
param *.rsu[*].nic.mac1609_4.bitrate 6Mbps
param *.rsu[*].nic.phy80211p.sensitivity -90.00dBm
param *.rsu[0].mobility.x 515.0
param *.rsu[0].mobility.y 25.0
param *.rsu[0].mobility.z 3
param *.node[*].applType "\"VehApp\""
param *.node[*].appl.headerLength "80 bit"
param *.node[*].appl.sendBeacons false
param *.node[*].appl.dataOnSch true
param *.node[*].appl.beaconInterval 1s
param *.node[*].appl.wsaInterval 1s
param *.node[*].appl.entMsgADataLengthBits 1500B
param *.node[*].appl.entMsgAUserPriority 4
param *.node[*].appl.entMsgAInterval 0.4s
param *.node[*].appl.entMsgBDataLengthBits 1500B
param *.node[*].appl.entMsgBUserPriority 4
param *.node[*].appl.entMsgBInterval 0.4s
param *.node[*].nic.mac1609_4.useServiceChannel true
param *.node[*].nic.mac1609_4.txPower 20mW
param *.node[*].nic.mac1609_4.bitrate 6Mbps
param *.node[*].nic.phy80211p.sensitivity -90.00dBm
param *.node[*].veinsmobilityType.debug true
param *.node[*].veinsmobility.x 0
param *.node[*].veinsmobility.y 0
param *.node[*].veinsmobility.z 1.895
param *.**.nic.phy80211p.useThermalNoise true
param *.**.nic.phy80211p.thermalNoise -110dBm
param *.**.nic.phy80211p.decider "xmldoc(\"config.xml\")"
param *.**.nic.phy80211p.analogueModels "xmldoc(\"config.xml\")"
param *.**.nic.phy80211p.usePropagationDelay true
param *.**.nic.phy80211p.antenna "xmldoc(\"antenna.xml\", \"/root/Antenna[@id='monopole']\")"
param *.**.nic.phy80211p.collectCollisionStatistics true
param *.**.nic.phy80211p.allowTxDuringRx false

scalar SlicingScenario.node[0].appl txPackets_13 0
scalar SlicingScenario.node[0].appl rxPackets_13 0
scalar SlicingScenario.node[0].appl rxNeighborPackets_13 0
scalar SlicingScenario.node[0].appl meanDelay_13 0
scalar SlicingScenario.node[0].appl meanJitter_13 0
scalar SlicingScenario.node[0].appl meanRxPacketSize_13 0
scalar SlicingScenario.node[0].appl meanTxPacketSize_13 0
scalar SlicingScenario.node[0].appl meanRxThroughput_13 0
scalar SlicingScenario.node[0].appl meanTxThroughput_13 0
scalar SlicingScenario.node[0].appl rxTimeOfService_13 0
scalar SlicingScenario.node[0].appl txTimeOfService_13 0
scalar SlicingScenario.node[0].appl txPackets_40_13 0
scalar SlicingScenario.node[0].appl rxPackets_40_13 207
scalar SlicingScenario.node[0].appl rxNeighborPackets_40_13 1484
scalar SlicingScenario.node[0].appl meanDelay_40_13 0.005258259944
scalar SlicingScenario.node[0].appl meanJitter_40_13 0.000103040485
scalar SlicingScenario.node[0].appl meanRxPacketSize_40_13 1510
scalar SlicingScenario.node[0].appl meanTxPacketSize_40_13 0
scalar SlicingScenario.node[0].appl meanRxThroughput_40_13 30343.858480184
scalar SlicingScenario.node[0].appl meanTxThroughput_40_13 0
scalar SlicingScenario.node[0].appl rxTimeOfService_40_13 82.407449983099
scalar SlicingScenario.node[0].appl txTimeOfService_40_13 0
scalar SlicingScenario.node[0].nic.phy80211p busyTime 0.10492747826087
scalar SlicingScenario.node[0].nic.phy80211p ncollisions 0
scalar SlicingScenario.node[0].nic.phy80211p UnderSensitivityPackets 572
scalar SlicingScenario.node[0].nic.mac1609_4 ReceivedUnicastPackets_CCH 0
scalar SlicingScenario.node[0].nic.mac1609_4 ReceivedBroadcasts_CCH 0
scalar SlicingScenario.node[0].nic.mac1609_4 SentPackets_CCH 0
scalar SlicingScenario.node[0].nic.mac1609_4 SentAcknowledgements_CCH 0
scalar SlicingScenario.node[0].nic.mac1609_4 SNIRLostPackets_CCH 0
scalar SlicingScenario.node[0].nic.mac1609_4 RXTXLostPackets_CCH 0
scalar SlicingScenario.node[0].nic.mac1609_4 TotalLostPackets_CCH 0
scalar SlicingScenario.node[0].nic.mac1609_4 DroppedPacketsInMac_CCH 0
scalar SlicingScenario.node[0].nic.mac1609_4 TooLittleTime_CCH 0
scalar SlicingScenario.node[0].nic.mac1609_4 TimesIntoBackoff_CCH 0
scalar SlicingScenario.node[0].nic.mac1609_4 SlotsBackoff_CCH 0
scalar SlicingScenario.node[0].nic.mac1609_4 NumInternalContention_CCH 0
scalar SlicingScenario.node[0].nic.mac1609_4 RemainingPacketsInEDCA_CCH 0
scalar SlicingScenario.node[0].nic.mac1609_4 totalBusyTime_CCH 0
scalar SlicingScenario.node[0].nic.mac1609_4 ReceivedUnicastPackets_SCH 0
scalar SlicingScenario.node[0].nic.mac1609_4 ReceivedBroadcasts_SCH 4677
scalar SlicingScenario.node[0].nic.mac1609_4 SentPackets_SCH 0
scalar SlicingScenario.node[0].nic.mac1609_4 SentAcknowledgements_SCH 0
scalar SlicingScenario.node[0].nic.mac1609_4 SNIRLostPackets_SCH 0
scalar SlicingScenario.node[0].nic.mac1609_4 RXTXLostPackets_SCH 0
scalar SlicingScenario.node[0].nic.mac1609_4 TotalLostPackets_SCH 0
scalar SlicingScenario.node[0].nic.mac1609_4 DroppedPacketsInMac_SCH 0
scalar SlicingScenario.node[0].nic.mac1609_4 TooLittleTime_SCH 0
scalar SlicingScenario.node[0].nic.mac1609_4 TimesIntoBackoff_SCH 0
scalar SlicingScenario.node[0].nic.mac1609_4 SlotsBackoff_SCH 0
scalar SlicingScenario.node[0].nic.mac1609_4 NumInternalContention_SCH 0
scalar SlicingScenario.node[0].nic.mac1609_4 RemainingPacketsInEDCA_SCH 0
scalar SlicingScenario.node[0].nic.mac1609_4 totalBusyTime_SCH 9.653328
scalar SlicingScenario.node[0].veinsmobility startTime 1
scalar SlicingScenario.node[0].veinsmobility totalTime 91
scalar SlicingScenario.node[0].veinsmobility stopTime 93
scalar SlicingScenario.node[0].veinsmobility minSpeed 10.614421291756
scalar SlicingScenario.node[0].veinsmobility maxSpeed 11.10517498794
scalar SlicingScenario.node[0].veinsmobility totalDistance 978.37897559896
scalar SlicingScenario.node[0].veinsmobility totalCO2Emission 158.24884378927
scalar SlicingScenario.node[1].appl txPackets_19 0
scalar SlicingScenario.node[1].appl rxPackets_19 0
scalar SlicingScenario.node[1].appl rxNeighborPackets_19 0
scalar SlicingScenario.node[1].appl meanDelay_19 0
scalar SlicingScenario.node[1].appl meanJitter_19 0
scalar SlicingScenario.node[1].appl meanRxPacketSize_19 0
scalar SlicingScenario.node[1].appl meanTxPacketSize_19 0
scalar SlicingScenario.node[1].appl meanRxThroughput_19 0
scalar SlicingScenario.node[1].appl meanTxThroughput_19 0
scalar SlicingScenario.node[1].appl rxTimeOfService_19 0
scalar SlicingScenario.node[1].appl txTimeOfService_19 0
scalar SlicingScenario.node[1].appl txPackets_41_19 0
scalar SlicingScenario.node[1].appl rxPackets_41_19 208
scalar SlicingScenario.node[1].appl rxNeighborPackets_41_19 2847
scalar SlicingScenario.node[1].appl meanDelay_41_19 0.00207428021
scalar SlicingScenario.node[1].appl meanJitter_41_19 1.0140543e-05
scalar SlicingScenario.node[1].appl meanRxPacketSize_41_19 1510
scalar SlicingScenario.node[1].appl meanTxPacketSize_41_19 0
scalar SlicingScenario.node[1].appl meanRxThroughput_41_19 30345.891162309
scalar SlicingScenario.node[1].appl meanTxThroughput_41_19 0
scalar SlicingScenario.node[1].appl rxTimeOfService_41_19 82.800006978238
scalar SlicingScenario.node[1].appl txTimeOfService_41_19 0
scalar SlicingScenario.node[1].nic.phy80211p busyTime 0.10746260869565
scalar SlicingScenario.node[1].nic.phy80211p ncollisions 0
scalar SlicingScenario.node[1].nic.phy80211p UnderSensitivityPackets 566
scalar SlicingScenario.node[1].nic.mac1609_4 ReceivedUnicastPackets_CCH 0
scalar SlicingScenario.node[1].nic.mac1609_4 ReceivedBroadcasts_CCH 0
scalar SlicingScenario.node[1].nic.mac1609_4 SentPackets_CCH 0
scalar SlicingScenario.node[1].nic.mac1609_4 SentAcknowledgements_CCH 0
scalar SlicingScenario.node[1].nic.mac1609_4 SNIRLostPackets_CCH 0
scalar SlicingScenario.node[1].nic.mac1609_4 RXTXLostPackets_CCH 0
scalar SlicingScenario.node[1].nic.mac1609_4 TotalLostPackets_CCH 0
scalar SlicingScenario.node[1].nic.mac1609_4 DroppedPacketsInMac_CCH 0
scalar SlicingScenario.node[1].nic.mac1609_4 TooLittleTime_CCH 0
scalar SlicingScenario.node[1].nic.mac1609_4 TimesIntoBackoff_CCH 0
scalar SlicingScenario.node[1].nic.mac1609_4 SlotsBackoff_CCH 0
scalar SlicingScenario.node[1].nic.mac1609_4 NumInternalContention_CCH 0
scalar SlicingScenario.node[1].nic.mac1609_4 RemainingPacketsInEDCA_CCH 0
scalar SlicingScenario.node[1].nic.mac1609_4 totalBusyTime_CCH 0
scalar SlicingScenario.node[1].nic.mac1609_4 ReceivedUnicastPackets_SCH 0
scalar SlicingScenario.node[1].nic.mac1609_4 ReceivedBroadcasts_SCH 4790
scalar SlicingScenario.node[1].nic.mac1609_4 SentPackets_SCH 0
scalar SlicingScenario.node[1].nic.mac1609_4 SentAcknowledgements_SCH 0
scalar SlicingScenario.node[1].nic.mac1609_4 SNIRLostPackets_SCH 0
scalar SlicingScenario.node[1].nic.mac1609_4 RXTXLostPackets_SCH 0
scalar SlicingScenario.node[1].nic.mac1609_4 TotalLostPackets_SCH 0
scalar SlicingScenario.node[1].nic.mac1609_4 DroppedPacketsInMac_SCH 0
scalar SlicingScenario.node[1].nic.mac1609_4 TooLittleTime_SCH 0
scalar SlicingScenario.node[1].nic.mac1609_4 TimesIntoBackoff_SCH 0
scalar SlicingScenario.node[1].nic.mac1609_4 SlotsBackoff_SCH 0
scalar SlicingScenario.node[1].nic.mac1609_4 NumInternalContention_SCH 0
scalar SlicingScenario.node[1].nic.mac1609_4 RemainingPacketsInEDCA_SCH 0
scalar SlicingScenario.node[1].nic.mac1609_4 totalBusyTime_SCH 9.88656
scalar SlicingScenario.node[1].veinsmobility startTime 2
scalar SlicingScenario.node[1].veinsmobility totalTime 91
scalar SlicingScenario.node[1].veinsmobility stopTime 94
scalar SlicingScenario.node[1].veinsmobility minSpeed 10.612070355928
scalar SlicingScenario.node[1].veinsmobility maxSpeed 11.108520155787
scalar SlicingScenario.node[1].veinsmobility totalDistance 978.60807588558
scalar SlicingScenario.node[1].veinsmobility totalCO2Emission 159.08076285056
scalar SlicingScenario.node[2].appl txPackets_25 0
scalar SlicingScenario.node[2].appl rxPackets_25 0
scalar SlicingScenario.node[2].appl rxNeighborPackets_25 0
scalar SlicingScenario.node[2].appl meanDelay_25 0
scalar SlicingScenario.node[2].appl meanJitter_25 0
scalar SlicingScenario.node[2].appl meanRxPacketSize_25 0
scalar SlicingScenario.node[2].appl meanTxPacketSize_25 0
scalar SlicingScenario.node[2].appl meanRxThroughput_25 0
scalar SlicingScenario.node[2].appl meanTxThroughput_25 0
scalar SlicingScenario.node[2].appl rxTimeOfService_25 0
scalar SlicingScenario.node[2].appl txTimeOfService_25 0
scalar SlicingScenario.node[2].appl txPackets_40_25 0
scalar SlicingScenario.node[2].appl rxPackets_40_25 207
scalar SlicingScenario.node[2].appl rxNeighborPackets_40_25 1610
scalar SlicingScenario.node[2].appl meanDelay_40_25 0.002072709307
scalar SlicingScenario.node[2].appl meanJitter_40_25 1.0232685e-05
scalar SlicingScenario.node[2].appl meanRxPacketSize_40_25 1510
scalar SlicingScenario.node[2].appl meanTxPacketSize_40_25 0
scalar SlicingScenario.node[2].appl meanRxThroughput_40_25 30346.604152889
scalar SlicingScenario.node[2].appl meanTxThroughput_40_25 0
scalar SlicingScenario.node[2].appl rxTimeOfService_40_25 82.399993996097
scalar SlicingScenario.node[2].appl txTimeOfService_40_25 0
scalar SlicingScenario.node[2].nic.phy80211p busyTime 0.11090116129033
scalar SlicingScenario.node[2].nic.phy80211p ncollisions 0
scalar SlicingScenario.node[2].nic.phy80211p UnderSensitivityPackets 591
scalar SlicingScenario.node[2].nic.mac1609_4 ReceivedUnicastPackets_CCH 0
scalar SlicingScenario.node[2].nic.mac1609_4 ReceivedBroadcasts_CCH 0
scalar SlicingScenario.node[2].nic.mac1609_4 SentPackets_CCH 0
scalar SlicingScenario.node[2].nic.mac1609_4 SentAcknowledgements_CCH 0
scalar SlicingScenario.node[2].nic.mac1609_4 SNIRLostPackets_CCH 0
scalar SlicingScenario.node[2].nic.mac1609_4 RXTXLostPackets_CCH 0
scalar SlicingScenario.node[2].nic.mac1609_4 TotalLostPackets_CCH 0
scalar SlicingScenario.node[2].nic.mac1609_4 DroppedPacketsInMac_CCH 0
scalar SlicingScenario.node[2].nic.mac1609_4 TooLittleTime_CCH 0
scalar SlicingScenario.node[2].nic.mac1609_4 TimesIntoBackoff_CCH 0
scalar SlicingScenario.node[2].nic.mac1609_4 SlotsBackoff_CCH 0
scalar SlicingScenario.node[2].nic.mac1609_4 NumInternalContention_CCH 0
scalar SlicingScenario.node[2].nic.mac1609_4 RemainingPacketsInEDCA_CCH 0
scalar SlicingScenario.node[2].nic.mac1609_4 totalBusyTime_CCH 0
scalar SlicingScenario.node[2].nic.mac1609_4 ReceivedUnicastPackets_SCH 0
scalar SlicingScenario.node[2].nic.mac1609_4 ReceivedBroadcasts_SCH 4997
scalar SlicingScenario.node[2].nic.mac1609_4 SentPackets_SCH 0
scalar SlicingScenario.node[2].nic.mac1609_4 SentAcknowledgements_SCH 0
scalar SlicingScenario.node[2].nic.mac1609_4 SNIRLostPackets_SCH 0
scalar SlicingScenario.node[2].nic.mac1609_4 RXTXLostPackets_SCH 0
scalar SlicingScenario.node[2].nic.mac1609_4 TotalLostPackets_SCH 0
scalar SlicingScenario.node[2].nic.mac1609_4 DroppedPacketsInMac_SCH 0
scalar SlicingScenario.node[2].nic.mac1609_4 TooLittleTime_SCH 0
scalar SlicingScenario.node[2].nic.mac1609_4 TimesIntoBackoff_SCH 0
scalar SlicingScenario.node[2].nic.mac1609_4 SlotsBackoff_SCH 0
scalar SlicingScenario.node[2].nic.mac1609_4 NumInternalContention_SCH 0
scalar SlicingScenario.node[2].nic.mac1609_4 RemainingPacketsInEDCA_SCH 0
scalar SlicingScenario.node[2].nic.mac1609_4 totalBusyTime_SCH 10.313808
scalar SlicingScenario.node[2].veinsmobility startTime 3
scalar SlicingScenario.node[2].veinsmobility totalTime 92
scalar SlicingScenario.node[2].veinsmobility stopTime 96
scalar SlicingScenario.node[2].veinsmobility minSpeed 7.4687080990272
scalar SlicingScenario.node[2].veinsmobility maxSpeed 11.107672917787
scalar SlicingScenario.node[2].veinsmobility totalDistance 982.20788738076
scalar SlicingScenario.node[2].veinsmobility totalCO2Emission 168.37212885433
scalar SlicingScenario.node[5].appl txPackets_43 0
scalar SlicingScenario.node[5].appl rxPackets_43 0
scalar SlicingScenario.node[5].appl rxNeighborPackets_43 0
scalar SlicingScenario.node[5].appl meanDelay_43 0
scalar SlicingScenario.node[5].appl meanJitter_43 0
scalar SlicingScenario.node[5].appl meanRxPacketSize_43 0
scalar SlicingScenario.node[5].appl meanTxPacketSize_43 0
scalar SlicingScenario.node[5].appl meanRxThroughput_43 0
scalar SlicingScenario.node[5].appl meanTxThroughput_43 0
scalar SlicingScenario.node[5].appl rxTimeOfService_43 0
scalar SlicingScenario.node[5].appl txTimeOfService_43 0
scalar SlicingScenario.node[5].appl txPackets_41_43 0
scalar SlicingScenario.node[5].appl rxPackets_41_43 205
scalar SlicingScenario.node[5].appl rxNeighborPackets_41_43 3159
scalar SlicingScenario.node[5].appl meanDelay_41_43 0.004138609245
scalar SlicingScenario.node[5].appl meanJitter_41_43 7.3395775e-05
scalar SlicingScenario.node[5].appl meanRxPacketSize_41_43 1510
scalar SlicingScenario.node[5].appl meanTxPacketSize_41_43 0
scalar SlicingScenario.node[5].appl meanRxThroughput_41_43 30346.982247071
scalar SlicingScenario.node[5].appl meanTxThroughput_41_43 0
scalar SlicingScenario.node[5].appl rxTimeOfService_41_43 81.602842082891
scalar SlicingScenario.node[5].appl txTimeOfService_41_43 0
scalar SlicingScenario.node[5].nic.phy80211p busyTime 0.11910626086957
scalar SlicingScenario.node[5].nic.phy80211p ncollisions 0
scalar SlicingScenario.node[5].nic.phy80211p UnderSensitivityPackets 507
scalar SlicingScenario.node[5].nic.mac1609_4 ReceivedUnicastPackets_CCH 0
scalar SlicingScenario.node[5].nic.mac1609_4 ReceivedBroadcasts_CCH 0
scalar SlicingScenario.node[5].nic.mac1609_4 SentPackets_CCH 0
scalar SlicingScenario.node[5].nic.mac1609_4 SentAcknowledgements_CCH 0
scalar SlicingScenario.node[5].nic.mac1609_4 SNIRLostPackets_CCH 0
scalar SlicingScenario.node[5].nic.mac1609_4 RXTXLostPackets_CCH 0
scalar SlicingScenario.node[5].nic.mac1609_4 TotalLostPackets_CCH 0
scalar SlicingScenario.node[5].nic.mac1609_4 DroppedPacketsInMac_CCH 0
scalar SlicingScenario.node[5].nic.mac1609_4 TooLittleTime_CCH 0
scalar SlicingScenario.node[5].nic.mac1609_4 TimesIntoBackoff_CCH 0
scalar SlicingScenario.node[5].nic.mac1609_4 SlotsBackoff_CCH 0
scalar SlicingScenario.node[5].nic.mac1609_4 NumInternalContention_CCH 0
scalar SlicingScenario.node[5].nic.mac1609_4 RemainingPacketsInEDCA_CCH 0
scalar SlicingScenario.node[5].nic.mac1609_4 totalBusyTime_CCH 0
scalar SlicingScenario.node[5].nic.mac1609_4 ReceivedUnicastPackets_SCH 0
scalar SlicingScenario.node[5].nic.mac1609_4 ReceivedBroadcasts_SCH 5309
scalar SlicingScenario.node[5].nic.mac1609_4 SentPackets_SCH 0
scalar SlicingScenario.node[5].nic.mac1609_4 SentAcknowledgements_SCH 0
scalar SlicingScenario.node[5].nic.mac1609_4 SNIRLostPackets_SCH 0
scalar SlicingScenario.node[5].nic.mac1609_4 RXTXLostPackets_SCH 0
scalar SlicingScenario.node[5].nic.mac1609_4 TotalLostPackets_SCH 0
scalar SlicingScenario.node[5].nic.mac1609_4 DroppedPacketsInMac_SCH 0
scalar SlicingScenario.node[5].nic.mac1609_4 TooLittleTime_SCH 0
scalar SlicingScenario.node[5].nic.mac1609_4 TimesIntoBackoff_SCH 0
scalar SlicingScenario.node[5].nic.mac1609_4 SlotsBackoff_SCH 0
scalar SlicingScenario.node[5].nic.mac1609_4 NumInternalContention_SCH 0
scalar SlicingScenario.node[5].nic.mac1609_4 RemainingPacketsInEDCA_SCH 0
scalar SlicingScenario.node[5].nic.mac1609_4 totalBusyTime_SCH 10.957776
scalar SlicingScenario.node[5].veinsmobility startTime 6
scalar SlicingScenario.node[5].veinsmobility totalTime 91
scalar SlicingScenario.node[5].veinsmobility stopTime 98
scalar SlicingScenario.node[5].veinsmobility minSpeed 10.613437960288
scalar SlicingScenario.node[5].veinsmobility maxSpeed 11.10890555616
scalar SlicingScenario.node[5].veinsmobility totalDistance 976.20335693836
scalar SlicingScenario.node[5].veinsmobility totalCO2Emission 158.94309127838
scalar SlicingScenario.node[4].appl txPackets_37 0
scalar SlicingScenario.node[4].appl rxPackets_37 0
scalar SlicingScenario.node[4].appl rxNeighborPackets_37 0
scalar SlicingScenario.node[4].appl meanDelay_37 0
scalar SlicingScenario.node[4].appl meanJitter_37 0
scalar SlicingScenario.node[4].appl meanRxPacketSize_37 0
scalar SlicingScenario.node[4].appl meanTxPacketSize_37 0
scalar SlicingScenario.node[4].appl meanRxThroughput_37 0
scalar SlicingScenario.node[4].appl meanTxThroughput_37 0
scalar SlicingScenario.node[4].appl rxTimeOfService_37 0
scalar SlicingScenario.node[4].appl txTimeOfService_37 0
scalar SlicingScenario.node[4].appl txPackets_41_37 0
scalar SlicingScenario.node[4].appl rxPackets_41_37 201
scalar SlicingScenario.node[4].appl rxNeighborPackets_41_37 3104
scalar SlicingScenario.node[4].appl meanDelay_41_37 0.002222621274
scalar SlicingScenario.node[4].appl meanJitter_41_37 2.1043692e-05
scalar SlicingScenario.node[4].appl meanRxPacketSize_41_37 1510
scalar SlicingScenario.node[4].appl meanTxPacketSize_41_37 0
scalar SlicingScenario.node[4].appl meanRxThroughput_41_37 30350.739342944
scalar SlicingScenario.node[4].appl meanTxThroughput_41_37 0
scalar SlicingScenario.node[4].appl rxTimeOfService_41_37 80.000687052932
scalar SlicingScenario.node[4].appl txTimeOfService_41_37 0
scalar SlicingScenario.node[4].nic.phy80211p busyTime 0.11670573913044
scalar SlicingScenario.node[4].nic.phy80211p ncollisions 0
scalar SlicingScenario.node[4].nic.phy80211p UnderSensitivityPackets 614
scalar SlicingScenario.node[4].nic.mac1609_4 ReceivedUnicastPackets_CCH 0
scalar SlicingScenario.node[4].nic.mac1609_4 ReceivedBroadcasts_CCH 0
scalar SlicingScenario.node[4].nic.mac1609_4 SentPackets_CCH 0
scalar SlicingScenario.node[4].nic.mac1609_4 SentAcknowledgements_CCH 0
scalar SlicingScenario.node[4].nic.mac1609_4 SNIRLostPackets_CCH 0
scalar SlicingScenario.node[4].nic.mac1609_4 RXTXLostPackets_CCH 0
scalar SlicingScenario.node[4].nic.mac1609_4 TotalLostPackets_CCH 0
scalar SlicingScenario.node[4].nic.mac1609_4 DroppedPacketsInMac_CCH 0
scalar SlicingScenario.node[4].nic.mac1609_4 TooLittleTime_CCH 0
scalar SlicingScenario.node[4].nic.mac1609_4 TimesIntoBackoff_CCH 0
scalar SlicingScenario.node[4].nic.mac1609_4 SlotsBackoff_CCH 0
scalar SlicingScenario.node[4].nic.mac1609_4 NumInternalContention_CCH 0
scalar SlicingScenario.node[4].nic.mac1609_4 RemainingPacketsInEDCA_CCH 0
scalar SlicingScenario.node[4].nic.mac1609_4 totalBusyTime_CCH 0
scalar SlicingScenario.node[4].nic.mac1609_4 ReceivedUnicastPackets_SCH 0
scalar SlicingScenario.node[4].nic.mac1609_4 ReceivedBroadcasts_SCH 5202
scalar SlicingScenario.node[4].nic.mac1609_4 SentPackets_SCH 0
scalar SlicingScenario.node[4].nic.mac1609_4 SentAcknowledgements_SCH 0
scalar SlicingScenario.node[4].nic.mac1609_4 SNIRLostPackets_SCH 0
scalar SlicingScenario.node[4].nic.mac1609_4 RXTXLostPackets_SCH 0
scalar SlicingScenario.node[4].nic.mac1609_4 TotalLostPackets_SCH 0
scalar SlicingScenario.node[4].nic.mac1609_4 DroppedPacketsInMac_SCH 0
scalar SlicingScenario.node[4].nic.mac1609_4 TooLittleTime_SCH 0
scalar SlicingScenario.node[4].nic.mac1609_4 TimesIntoBackoff_SCH 0
scalar SlicingScenario.node[4].nic.mac1609_4 SlotsBackoff_SCH 0
scalar SlicingScenario.node[4].nic.mac1609_4 NumInternalContention_SCH 0
scalar SlicingScenario.node[4].nic.mac1609_4 RemainingPacketsInEDCA_SCH 0
scalar SlicingScenario.node[4].nic.mac1609_4 totalBusyTime_SCH 10.736928
scalar SlicingScenario.node[4].veinsmobility startTime 6
scalar SlicingScenario.node[4].veinsmobility totalTime 91
scalar SlicingScenario.node[4].veinsmobility stopTime 98
scalar SlicingScenario.node[4].veinsmobility minSpeed 10.620585464071
scalar SlicingScenario.node[4].veinsmobility maxSpeed 11.08731098067
scalar SlicingScenario.node[4].veinsmobility totalDistance 978.11172311089
scalar SlicingScenario.node[4].veinsmobility totalCO2Emission 158.09485256981
scalar SlicingScenario.node[6].appl txPackets_49 0
scalar SlicingScenario.node[6].appl rxPackets_49 0
scalar SlicingScenario.node[6].appl rxNeighborPackets_49 0
scalar SlicingScenario.node[6].appl meanDelay_49 0
scalar SlicingScenario.node[6].appl meanJitter_49 0
scalar SlicingScenario.node[6].appl meanRxPacketSize_49 0
scalar SlicingScenario.node[6].appl meanTxPacketSize_49 0
scalar SlicingScenario.node[6].appl meanRxThroughput_49 0
scalar SlicingScenario.node[6].appl meanTxThroughput_49 0
scalar SlicingScenario.node[6].appl rxTimeOfService_49 0
scalar SlicingScenario.node[6].appl txTimeOfService_49 0
scalar SlicingScenario.node[6].appl txPackets_41_49 0
scalar SlicingScenario.node[6].appl rxPackets_41_49 198
scalar SlicingScenario.node[6].appl rxNeighborPackets_41_49 3163
scalar SlicingScenario.node[6].appl meanDelay_41_49 0.002075209444
scalar SlicingScenario.node[6].appl meanJitter_41_49 1.0654528e-05
scalar SlicingScenario.node[6].appl meanRxPacketSize_41_49 1510
scalar SlicingScenario.node[6].appl meanTxPacketSize_41_49 0
scalar SlicingScenario.node[6].appl meanRxThroughput_41_49 30353.296758976
scalar SlicingScenario.node[6].appl meanTxThroughput_41_49 0
scalar SlicingScenario.node[6].appl rxTimeOfService_41_49 78.800007096188
scalar SlicingScenario.node[6].appl txTimeOfService_41_49 0
scalar SlicingScenario.node[6].nic.phy80211p busyTime 0.11885947826088
scalar SlicingScenario.node[6].nic.phy80211p ncollisions 0
scalar SlicingScenario.node[6].nic.phy80211p UnderSensitivityPackets 640
scalar SlicingScenario.node[6].nic.mac1609_4 ReceivedUnicastPackets_CCH 0
scalar SlicingScenario.node[6].nic.mac1609_4 ReceivedBroadcasts_CCH 0
scalar SlicingScenario.node[6].nic.mac1609_4 SentPackets_CCH 0
scalar SlicingScenario.node[6].nic.mac1609_4 SentAcknowledgements_CCH 0
scalar SlicingScenario.node[6].nic.mac1609_4 SNIRLostPackets_CCH 0
scalar SlicingScenario.node[6].nic.mac1609_4 RXTXLostPackets_CCH 0
scalar SlicingScenario.node[6].nic.mac1609_4 TotalLostPackets_CCH 0
scalar SlicingScenario.node[6].nic.mac1609_4 DroppedPacketsInMac_CCH 0
scalar SlicingScenario.node[6].nic.mac1609_4 TooLittleTime_CCH 0
scalar SlicingScenario.node[6].nic.mac1609_4 TimesIntoBackoff_CCH 0
scalar SlicingScenario.node[6].nic.mac1609_4 SlotsBackoff_CCH 0
scalar SlicingScenario.node[6].nic.mac1609_4 NumInternalContention_CCH 0
scalar SlicingScenario.node[6].nic.mac1609_4 RemainingPacketsInEDCA_CCH 0
scalar SlicingScenario.node[6].nic.mac1609_4 totalBusyTime_CCH 0
scalar SlicingScenario.node[6].nic.mac1609_4 ReceivedUnicastPackets_SCH 0
scalar SlicingScenario.node[6].nic.mac1609_4 ReceivedBroadcasts_SCH 5298
scalar SlicingScenario.node[6].nic.mac1609_4 SentPackets_SCH 0
scalar SlicingScenario.node[6].nic.mac1609_4 SentAcknowledgements_SCH 0
scalar SlicingScenario.node[6].nic.mac1609_4 SNIRLostPackets_SCH 0
scalar SlicingScenario.node[6].nic.mac1609_4 RXTXLostPackets_SCH 0
scalar SlicingScenario.node[6].nic.mac1609_4 TotalLostPackets_SCH 0
scalar SlicingScenario.node[6].nic.mac1609_4 DroppedPacketsInMac_SCH 0
scalar SlicingScenario.node[6].nic.mac1609_4 TooLittleTime_SCH 0
scalar SlicingScenario.node[6].nic.mac1609_4 TimesIntoBackoff_SCH 0
scalar SlicingScenario.node[6].nic.mac1609_4 SlotsBackoff_SCH 0
scalar SlicingScenario.node[6].nic.mac1609_4 NumInternalContention_SCH 0
scalar SlicingScenario.node[6].nic.mac1609_4 RemainingPacketsInEDCA_SCH 0
scalar SlicingScenario.node[6].nic.mac1609_4 totalBusyTime_SCH 10.935072
scalar SlicingScenario.node[6].veinsmobility startTime 7
scalar SlicingScenario.node[6].veinsmobility totalTime 91
scalar SlicingScenario.node[6].veinsmobility stopTime 99
scalar SlicingScenario.node[6].veinsmobility minSpeed 10.611735191559
scalar SlicingScenario.node[6].veinsmobility maxSpeed 11.109601400807
scalar SlicingScenario.node[6].veinsmobility totalDistance 979.86171721209
scalar SlicingScenario.node[6].veinsmobility totalCO2Emission 159.06886367227
scalar SlicingScenario.node[3].appl txPackets_31 0
scalar SlicingScenario.node[3].appl rxPackets_31 0
scalar SlicingScenario.node[3].appl rxNeighborPackets_31 0
scalar SlicingScenario.node[3].appl meanDelay_31 0
scalar SlicingScenario.node[3].appl meanJitter_31 0
scalar SlicingScenario.node[3].appl meanRxPacketSize_31 0
scalar SlicingScenario.node[3].appl meanTxPacketSize_31 0
scalar SlicingScenario.node[3].appl meanRxThroughput_31 0
scalar SlicingScenario.node[3].appl meanTxThroughput_31 0
scalar SlicingScenario.node[3].appl rxTimeOfService_31 0
scalar SlicingScenario.node[3].appl txTimeOfService_31 0
scalar SlicingScenario.node[3].appl txPackets_40_31 0
scalar SlicingScenario.node[3].appl rxPackets_40_31 208
scalar SlicingScenario.node[3].appl rxNeighborPackets_40_31 1774
scalar SlicingScenario.node[3].appl meanDelay_40_31 0.00207394289
scalar SlicingScenario.node[3].appl meanJitter_40_31 1.0404952e-05
scalar SlicingScenario.node[3].appl meanRxPacketSize_40_31 1510
scalar SlicingScenario.node[3].appl meanTxPacketSize_40_31 0
scalar SlicingScenario.node[3].appl meanRxThroughput_40_31 30345.893722686
scalar SlicingScenario.node[3].appl meanTxThroughput_40_31 0
scalar SlicingScenario.node[3].appl rxTimeOfService_40_31 82.799999992145
scalar SlicingScenario.node[3].appl txTimeOfService_40_31 0
scalar SlicingScenario.node[3].nic.phy80211p busyTime 0.11637950000001
scalar SlicingScenario.node[3].nic.phy80211p ncollisions 0
scalar SlicingScenario.node[3].nic.phy80211p UnderSensitivityPackets 655
scalar SlicingScenario.node[3].nic.mac1609_4 ReceivedUnicastPackets_CCH 0
scalar SlicingScenario.node[3].nic.mac1609_4 ReceivedBroadcasts_CCH 0
scalar SlicingScenario.node[3].nic.mac1609_4 SentPackets_CCH 0
scalar SlicingScenario.node[3].nic.mac1609_4 SentAcknowledgements_CCH 0
scalar SlicingScenario.node[3].nic.mac1609_4 SNIRLostPackets_CCH 0
scalar SlicingScenario.node[3].nic.mac1609_4 RXTXLostPackets_CCH 0
scalar SlicingScenario.node[3].nic.mac1609_4 TotalLostPackets_CCH 0
scalar SlicingScenario.node[3].nic.mac1609_4 DroppedPacketsInMac_CCH 0
scalar SlicingScenario.node[3].nic.mac1609_4 TooLittleTime_CCH 0
scalar SlicingScenario.node[3].nic.mac1609_4 TimesIntoBackoff_CCH 0
scalar SlicingScenario.node[3].nic.mac1609_4 SlotsBackoff_CCH 0
scalar SlicingScenario.node[3].nic.mac1609_4 NumInternalContention_CCH 0
scalar SlicingScenario.node[3].nic.mac1609_4 RemainingPacketsInEDCA_CCH 0
scalar SlicingScenario.node[3].nic.mac1609_4 totalBusyTime_CCH 0
scalar SlicingScenario.node[3].nic.mac1609_4 ReceivedUnicastPackets_SCH 0
scalar SlicingScenario.node[3].nic.mac1609_4 ReceivedBroadcasts_SCH 5413
scalar SlicingScenario.node[3].nic.mac1609_4 SentPackets_SCH 0
scalar SlicingScenario.node[3].nic.mac1609_4 SentAcknowledgements_SCH 0
scalar SlicingScenario.node[3].nic.mac1609_4 SNIRLostPackets_SCH 0
scalar SlicingScenario.node[3].nic.mac1609_4 RXTXLostPackets_SCH 0
scalar SlicingScenario.node[3].nic.mac1609_4 TotalLostPackets_SCH 0
scalar SlicingScenario.node[3].nic.mac1609_4 DroppedPacketsInMac_SCH 0
scalar SlicingScenario.node[3].nic.mac1609_4 TooLittleTime_SCH 0
scalar SlicingScenario.node[3].nic.mac1609_4 TimesIntoBackoff_SCH 0
scalar SlicingScenario.node[3].nic.mac1609_4 SlotsBackoff_SCH 0
scalar SlicingScenario.node[3].nic.mac1609_4 NumInternalContention_SCH 0
scalar SlicingScenario.node[3].nic.mac1609_4 RemainingPacketsInEDCA_SCH 0
scalar SlicingScenario.node[3].nic.mac1609_4 totalBusyTime_SCH 11.172432
scalar SlicingScenario.node[3].veinsmobility startTime 4
scalar SlicingScenario.node[3].veinsmobility totalTime 95
scalar SlicingScenario.node[3].veinsmobility stopTime 100
scalar SlicingScenario.node[3].veinsmobility minSpeed 3.5176575124701
scalar SlicingScenario.node[3].veinsmobility maxSpeed 11.098204278401
scalar SlicingScenario.node[3].veinsmobility totalDistance 978.31790356684
scalar SlicingScenario.node[3].veinsmobility totalCO2Emission 177.0204108621
scalar SlicingScenario.node[7].appl txPackets_55 0
scalar SlicingScenario.node[7].appl rxPackets_55 0
scalar SlicingScenario.node[7].appl rxNeighborPackets_55 0
scalar SlicingScenario.node[7].appl meanDelay_55 0
scalar SlicingScenario.node[7].appl meanJitter_55 0
scalar SlicingScenario.node[7].appl meanRxPacketSize_55 0
scalar SlicingScenario.node[7].appl meanTxPacketSize_55 0
scalar SlicingScenario.node[7].appl meanRxThroughput_55 0
scalar SlicingScenario.node[7].appl meanTxThroughput_55 0
scalar SlicingScenario.node[7].appl rxTimeOfService_55 0
scalar SlicingScenario.node[7].appl txTimeOfService_55 0
scalar SlicingScenario.node[7].appl txPackets_41_55 0
scalar SlicingScenario.node[7].appl rxPackets_41_55 199
scalar SlicingScenario.node[7].appl rxNeighborPackets_41_55 3287
scalar SlicingScenario.node[7].appl meanDelay_41_55 0.003654828475
scalar SlicingScenario.node[7].appl meanJitter_41_55 6.2728903e-05
scalar SlicingScenario.node[7].appl meanRxPacketSize_41_55 1510
scalar SlicingScenario.node[7].appl meanTxPacketSize_41_55 0
scalar SlicingScenario.node[7].appl meanRxThroughput_41_55 30351.577488613
scalar SlicingScenario.node[7].appl meanTxThroughput_41_55 0
scalar SlicingScenario.node[7].appl rxTimeOfService_41_55 79.202473113692
scalar SlicingScenario.node[7].appl txTimeOfService_41_55 0
scalar SlicingScenario.node[7].nic.phy80211p busyTime 0.12224206451614
scalar SlicingScenario.node[7].nic.phy80211p ncollisions 0
scalar SlicingScenario.node[7].nic.phy80211p UnderSensitivityPackets 670
scalar SlicingScenario.node[7].nic.mac1609_4 ReceivedUnicastPackets_CCH 0
scalar SlicingScenario.node[7].nic.mac1609_4 ReceivedBroadcasts_CCH 0
scalar SlicingScenario.node[7].nic.mac1609_4 SentPackets_CCH 0
scalar SlicingScenario.node[7].nic.mac1609_4 SentAcknowledgements_CCH 0
scalar SlicingScenario.node[7].nic.mac1609_4 SNIRLostPackets_CCH 0
scalar SlicingScenario.node[7].nic.mac1609_4 RXTXLostPackets_CCH 0
scalar SlicingScenario.node[7].nic.mac1609_4 TotalLostPackets_CCH 0
scalar SlicingScenario.node[7].nic.mac1609_4 DroppedPacketsInMac_CCH 0
scalar SlicingScenario.node[7].nic.mac1609_4 TooLittleTime_CCH 0
scalar SlicingScenario.node[7].nic.mac1609_4 TimesIntoBackoff_CCH 0
scalar SlicingScenario.node[7].nic.mac1609_4 SlotsBackoff_CCH 0
scalar SlicingScenario.node[7].nic.mac1609_4 NumInternalContention_CCH 0
scalar SlicingScenario.node[7].nic.mac1609_4 RemainingPacketsInEDCA_CCH 0
scalar SlicingScenario.node[7].nic.mac1609_4 totalBusyTime_CCH 0
scalar SlicingScenario.node[7].nic.mac1609_4 ReceivedUnicastPackets_SCH 0
scalar SlicingScenario.node[7].nic.mac1609_4 ReceivedBroadcasts_SCH 5508
scalar SlicingScenario.node[7].nic.mac1609_4 SentPackets_SCH 0
scalar SlicingScenario.node[7].nic.mac1609_4 SentAcknowledgements_SCH 0
scalar SlicingScenario.node[7].nic.mac1609_4 SNIRLostPackets_SCH 0
scalar SlicingScenario.node[7].nic.mac1609_4 RXTXLostPackets_SCH 0
scalar SlicingScenario.node[7].nic.mac1609_4 TotalLostPackets_SCH 0
scalar SlicingScenario.node[7].nic.mac1609_4 DroppedPacketsInMac_SCH 0
scalar SlicingScenario.node[7].nic.mac1609_4 TooLittleTime_SCH 0
scalar SlicingScenario.node[7].nic.mac1609_4 TimesIntoBackoff_SCH 0
scalar SlicingScenario.node[7].nic.mac1609_4 SlotsBackoff_SCH 0
scalar SlicingScenario.node[7].nic.mac1609_4 NumInternalContention_SCH 0
scalar SlicingScenario.node[7].nic.mac1609_4 RemainingPacketsInEDCA_SCH 0
scalar SlicingScenario.node[7].nic.mac1609_4 totalBusyTime_SCH 11.368512
scalar SlicingScenario.node[7].veinsmobility startTime 8
scalar SlicingScenario.node[7].veinsmobility totalTime 92
scalar SlicingScenario.node[7].veinsmobility stopTime 101
scalar SlicingScenario.node[7].veinsmobility minSpeed 7.8336890850198
scalar SlicingScenario.node[7].veinsmobility maxSpeed 11.10262249365
scalar SlicingScenario.node[7].veinsmobility totalDistance 982.09013450572
scalar SlicingScenario.node[7].veinsmobility totalCO2Emission 167.00600802553
scalar SlicingScenario.node[9].appl txPackets_67 0
scalar SlicingScenario.node[9].appl rxPackets_67 0
scalar SlicingScenario.node[9].appl rxNeighborPackets_67 0
scalar SlicingScenario.node[9].appl meanDelay_67 0
scalar SlicingScenario.node[9].appl meanJitter_67 0
scalar SlicingScenario.node[9].appl meanRxPacketSize_67 0
scalar SlicingScenario.node[9].appl meanTxPacketSize_67 0
scalar SlicingScenario.node[9].appl meanRxThroughput_67 0
scalar SlicingScenario.node[9].appl meanTxThroughput_67 0
scalar SlicingScenario.node[9].appl rxTimeOfService_67 0
scalar SlicingScenario.node[9].appl txTimeOfService_67 0
scalar SlicingScenario.node[9].appl txPackets_40_67 0
scalar SlicingScenario.node[9].appl rxPackets_40_67 191
scalar SlicingScenario.node[9].appl rxNeighborPackets_40_67 1877
scalar SlicingScenario.node[9].appl meanDelay_40_67 0.002077386675
scalar SlicingScenario.node[9].appl meanJitter_40_67 1.6564983e-05
scalar SlicingScenario.node[9].appl meanRxPacketSize_40_67 1510
scalar SlicingScenario.node[9].appl meanTxPacketSize_40_67 0
scalar SlicingScenario.node[9].appl meanRxThroughput_40_67 30358.541846496
scalar SlicingScenario.node[9].appl meanTxThroughput_40_67 0
scalar SlicingScenario.node[9].appl rxTimeOfService_40_67 76.001015189281
scalar SlicingScenario.node[9].appl txTimeOfService_40_67 0
scalar SlicingScenario.node[9].nic.phy80211p busyTime 0.12608347826088
scalar SlicingScenario.node[9].nic.phy80211p ncollisions 0
scalar SlicingScenario.node[9].nic.phy80211p UnderSensitivityPackets 654
scalar SlicingScenario.node[9].nic.mac1609_4 ReceivedUnicastPackets_CCH 0
scalar SlicingScenario.node[9].nic.mac1609_4 ReceivedBroadcasts_CCH 0
scalar SlicingScenario.node[9].nic.mac1609_4 SentPackets_CCH 0
scalar SlicingScenario.node[9].nic.mac1609_4 SentAcknowledgements_CCH 0
scalar SlicingScenario.node[9].nic.mac1609_4 SNIRLostPackets_CCH 0
scalar SlicingScenario.node[9].nic.mac1609_4 RXTXLostPackets_CCH 0
scalar SlicingScenario.node[9].nic.mac1609_4 TotalLostPackets_CCH 0
scalar SlicingScenario.node[9].nic.mac1609_4 DroppedPacketsInMac_CCH 0
scalar SlicingScenario.node[9].nic.mac1609_4 TooLittleTime_CCH 0
scalar SlicingScenario.node[9].nic.mac1609_4 TimesIntoBackoff_CCH 0
scalar SlicingScenario.node[9].nic.mac1609_4 SlotsBackoff_CCH 0
scalar SlicingScenario.node[9].nic.mac1609_4 NumInternalContention_CCH 0
scalar SlicingScenario.node[9].nic.mac1609_4 RemainingPacketsInEDCA_CCH 0
scalar SlicingScenario.node[9].nic.mac1609_4 totalBusyTime_CCH 0
scalar SlicingScenario.node[9].nic.mac1609_4 ReceivedUnicastPackets_SCH 0
scalar SlicingScenario.node[9].nic.mac1609_4 ReceivedBroadcasts_SCH 5620
scalar SlicingScenario.node[9].nic.mac1609_4 SentPackets_SCH 0
scalar SlicingScenario.node[9].nic.mac1609_4 SentAcknowledgements_SCH 0
scalar SlicingScenario.node[9].nic.mac1609_4 SNIRLostPackets_SCH 0
scalar SlicingScenario.node[9].nic.mac1609_4 RXTXLostPackets_SCH 0
scalar SlicingScenario.node[9].nic.mac1609_4 TotalLostPackets_SCH 0
scalar SlicingScenario.node[9].nic.mac1609_4 DroppedPacketsInMac_SCH 0
scalar SlicingScenario.node[9].nic.mac1609_4 TooLittleTime_SCH 0
scalar SlicingScenario.node[9].nic.mac1609_4 TimesIntoBackoff_SCH 0
scalar SlicingScenario.node[9].nic.mac1609_4 SlotsBackoff_SCH 0
scalar SlicingScenario.node[9].nic.mac1609_4 NumInternalContention_SCH 0
scalar SlicingScenario.node[9].nic.mac1609_4 RemainingPacketsInEDCA_SCH 0
scalar SlicingScenario.node[9].nic.mac1609_4 totalBusyTime_SCH 11.59968
scalar SlicingScenario.node[9].veinsmobility startTime 10
scalar SlicingScenario.node[9].veinsmobility totalTime 91
scalar SlicingScenario.node[9].veinsmobility stopTime 102
scalar SlicingScenario.node[9].veinsmobility minSpeed 10.616538657122
scalar SlicingScenario.node[9].veinsmobility maxSpeed 11.106948326472
scalar SlicingScenario.node[9].veinsmobility totalDistance 976.25078752507
scalar SlicingScenario.node[9].veinsmobility totalCO2Emission 159.33159327905
scalar SlicingScenario.node[10].appl txPackets_73 0
scalar SlicingScenario.node[10].appl rxPackets_73 0
scalar SlicingScenario.node[10].appl rxNeighborPackets_73 0
scalar SlicingScenario.node[10].appl meanDelay_73 0
scalar SlicingScenario.node[10].appl meanJitter_73 0
scalar SlicingScenario.node[10].appl meanRxPacketSize_73 0
scalar SlicingScenario.node[10].appl meanTxPacketSize_73 0
scalar SlicingScenario.node[10].appl meanRxThroughput_73 0
scalar SlicingScenario.node[10].appl meanTxThroughput_73 0
scalar SlicingScenario.node[10].appl rxTimeOfService_73 0
scalar SlicingScenario.node[10].appl txTimeOfService_73 0
scalar SlicingScenario.node[10].appl txPackets_41_73 0
scalar SlicingScenario.node[10].appl rxPackets_41_73 190
scalar SlicingScenario.node[10].appl rxNeighborPackets_41_73 3415
scalar SlicingScenario.node[10].appl meanDelay_41_73 0.007620138573
scalar SlicingScenario.node[10].appl meanJitter_41_73 8.9425892e-05
scalar SlicingScenario.node[10].appl meanRxPacketSize_41_73 1510
scalar SlicingScenario.node[10].appl meanTxPacketSize_41_73 0
scalar SlicingScenario.node[10].appl meanRxThroughput_41_73 30358.878300504
scalar SlicingScenario.node[10].appl meanTxThroughput_41_73 0
scalar SlicingScenario.node[10].appl rxTimeOfService_41_73 75.602266239261
scalar SlicingScenario.node[10].appl txTimeOfService_41_73 0
scalar SlicingScenario.node[10].nic.phy80211p busyTime 0.12821478260871
scalar SlicingScenario.node[10].nic.phy80211p ncollisions 0
scalar SlicingScenario.node[10].nic.phy80211p UnderSensitivityPackets 683
scalar SlicingScenario.node[10].nic.mac1609_4 ReceivedUnicastPackets_CCH 0
scalar SlicingScenario.node[10].nic.mac1609_4 ReceivedBroadcasts_CCH 0
scalar SlicingScenario.node[10].nic.mac1609_4 SentPackets_CCH 0
scalar SlicingScenario.node[10].nic.mac1609_4 SentAcknowledgements_CCH 0
scalar SlicingScenario.node[10].nic.mac1609_4 SNIRLostPackets_CCH 0
scalar SlicingScenario.node[10].nic.mac1609_4 RXTXLostPackets_CCH 0
scalar SlicingScenario.node[10].nic.mac1609_4 TotalLostPackets_CCH 0
scalar SlicingScenario.node[10].nic.mac1609_4 DroppedPacketsInMac_CCH 0
scalar SlicingScenario.node[10].nic.mac1609_4 TooLittleTime_CCH 0
scalar SlicingScenario.node[10].nic.mac1609_4 TimesIntoBackoff_CCH 0
scalar SlicingScenario.node[10].nic.mac1609_4 SlotsBackoff_CCH 0
scalar SlicingScenario.node[10].nic.mac1609_4 NumInternalContention_CCH 0
scalar SlicingScenario.node[10].nic.mac1609_4 RemainingPacketsInEDCA_CCH 0
scalar SlicingScenario.node[10].nic.mac1609_4 totalBusyTime_CCH 0
scalar SlicingScenario.node[10].nic.mac1609_4 ReceivedUnicastPackets_SCH 0
scalar SlicingScenario.node[10].nic.mac1609_4 ReceivedBroadcasts_SCH 5715
scalar SlicingScenario.node[10].nic.mac1609_4 SentPackets_SCH 0
scalar SlicingScenario.node[10].nic.mac1609_4 SentAcknowledgements_SCH 0
scalar SlicingScenario.node[10].nic.mac1609_4 SNIRLostPackets_SCH 0
scalar SlicingScenario.node[10].nic.mac1609_4 RXTXLostPackets_SCH 0
scalar SlicingScenario.node[10].nic.mac1609_4 TotalLostPackets_SCH 0
scalar SlicingScenario.node[10].nic.mac1609_4 DroppedPacketsInMac_SCH 0
scalar SlicingScenario.node[10].nic.mac1609_4 TooLittleTime_SCH 0
scalar SlicingScenario.node[10].nic.mac1609_4 TimesIntoBackoff_SCH 0
scalar SlicingScenario.node[10].nic.mac1609_4 SlotsBackoff_SCH 0
scalar SlicingScenario.node[10].nic.mac1609_4 NumInternalContention_SCH 0
scalar SlicingScenario.node[10].nic.mac1609_4 RemainingPacketsInEDCA_SCH 0
scalar SlicingScenario.node[10].nic.mac1609_4 totalBusyTime_SCH 11.79576
scalar SlicingScenario.node[10].veinsmobility startTime 11
scalar SlicingScenario.node[10].veinsmobility totalTime 91
scalar SlicingScenario.node[10].veinsmobility stopTime 103
scalar SlicingScenario.node[10].veinsmobility minSpeed 10.61119113375
scalar SlicingScenario.node[10].veinsmobility maxSpeed 11.107563864221
scalar SlicingScenario.node[10].veinsmobility totalDistance 979.86261006911
scalar SlicingScenario.node[10].veinsmobility totalCO2Emission 157.98087826002
scalar SlicingScenario.node[8].appl txPackets_61 0
scalar SlicingScenario.node[8].appl rxPackets_61 0
scalar SlicingScenario.node[8].appl rxNeighborPackets_61 0
scalar SlicingScenario.node[8].appl meanDelay_61 0
scalar SlicingScenario.node[8].appl meanJitter_61 0
scalar SlicingScenario.node[8].appl meanRxPacketSize_61 0
scalar SlicingScenario.node[8].appl meanTxPacketSize_61 0
scalar SlicingScenario.node[8].appl meanRxThroughput_61 0
scalar SlicingScenario.node[8].appl meanTxThroughput_61 0
scalar SlicingScenario.node[8].appl rxTimeOfService_61 0
scalar SlicingScenario.node[8].appl txTimeOfService_61 0
scalar SlicingScenario.node[8].appl txPackets_41_61 0
scalar SlicingScenario.node[8].appl rxPackets_41_61 201
scalar SlicingScenario.node[8].appl rxNeighborPackets_41_61 3468
scalar SlicingScenario.node[8].appl meanDelay_41_61 0.002386841522
scalar SlicingScenario.node[8].appl meanJitter_41_61 6.3752503e-05
scalar SlicingScenario.node[8].appl meanRxPacketSize_41_61 1510
scalar SlicingScenario.node[8].appl meanTxPacketSize_41_61 0
scalar SlicingScenario.node[8].appl meanRxThroughput_41_61 30350.853904701
scalar SlicingScenario.node[8].appl meanTxThroughput_41_61 0
scalar SlicingScenario.node[8].appl rxTimeOfService_41_61 80.000385083858
scalar SlicingScenario.node[8].appl txTimeOfService_41_61 0
scalar SlicingScenario.node[8].nic.phy80211p busyTime 0.12664269473685
scalar SlicingScenario.node[8].nic.phy80211p ncollisions 0
scalar SlicingScenario.node[8].nic.phy80211p UnderSensitivityPackets 707
scalar SlicingScenario.node[8].nic.mac1609_4 ReceivedUnicastPackets_CCH 0
scalar SlicingScenario.node[8].nic.mac1609_4 ReceivedBroadcasts_CCH 0
scalar SlicingScenario.node[8].nic.mac1609_4 SentPackets_CCH 0
scalar SlicingScenario.node[8].nic.mac1609_4 SentAcknowledgements_CCH 0
scalar SlicingScenario.node[8].nic.mac1609_4 SNIRLostPackets_CCH 0
scalar SlicingScenario.node[8].nic.mac1609_4 RXTXLostPackets_CCH 0
scalar SlicingScenario.node[8].nic.mac1609_4 TotalLostPackets_CCH 0
scalar SlicingScenario.node[8].nic.mac1609_4 DroppedPacketsInMac_CCH 0
scalar SlicingScenario.node[8].nic.mac1609_4 TooLittleTime_CCH 0
scalar SlicingScenario.node[8].nic.mac1609_4 TimesIntoBackoff_CCH 0
scalar SlicingScenario.node[8].nic.mac1609_4 SlotsBackoff_CCH 0
scalar SlicingScenario.node[8].nic.mac1609_4 NumInternalContention_CCH 0
scalar SlicingScenario.node[8].nic.mac1609_4 RemainingPacketsInEDCA_CCH 0
scalar SlicingScenario.node[8].nic.mac1609_4 totalBusyTime_CCH 0
scalar SlicingScenario.node[8].nic.mac1609_4 ReceivedUnicastPackets_SCH 0
scalar SlicingScenario.node[8].nic.mac1609_4 ReceivedBroadcasts_SCH 5829
scalar SlicingScenario.node[8].nic.mac1609_4 SentPackets_SCH 0
scalar SlicingScenario.node[8].nic.mac1609_4 SentAcknowledgements_SCH 0
scalar SlicingScenario.node[8].nic.mac1609_4 SNIRLostPackets_SCH 0
scalar SlicingScenario.node[8].nic.mac1609_4 RXTXLostPackets_SCH 0
scalar SlicingScenario.node[8].nic.mac1609_4 TotalLostPackets_SCH 0
scalar SlicingScenario.node[8].nic.mac1609_4 DroppedPacketsInMac_SCH 0
scalar SlicingScenario.node[8].nic.mac1609_4 TooLittleTime_SCH 0
scalar SlicingScenario.node[8].nic.mac1609_4 TimesIntoBackoff_SCH 0
scalar SlicingScenario.node[8].nic.mac1609_4 SlotsBackoff_SCH 0
scalar SlicingScenario.node[8].nic.mac1609_4 NumInternalContention_SCH 0
scalar SlicingScenario.node[8].nic.mac1609_4 RemainingPacketsInEDCA_SCH 0
scalar SlicingScenario.node[8].nic.mac1609_4 totalBusyTime_SCH 12.031056
scalar SlicingScenario.node[8].veinsmobility startTime 9
scalar SlicingScenario.node[8].veinsmobility totalTime 94
scalar SlicingScenario.node[8].veinsmobility stopTime 104
scalar SlicingScenario.node[8].veinsmobility minSpeed 4.3791939735152
scalar SlicingScenario.node[8].veinsmobility maxSpeed 11.10379757198
scalar SlicingScenario.node[8].veinsmobility totalDistance 982.6498890816
scalar SlicingScenario.node[8].veinsmobility totalCO2Emission 174.71409320063
scalar SlicingScenario.node[12].appl txPackets_85 0
scalar SlicingScenario.node[12].appl rxPackets_85 0
scalar SlicingScenario.node[12].appl rxNeighborPackets_85 0
scalar SlicingScenario.node[12].appl meanDelay_85 0
scalar SlicingScenario.node[12].appl meanJitter_85 0
scalar SlicingScenario.node[12].appl meanRxPacketSize_85 0
scalar SlicingScenario.node[12].appl meanTxPacketSize_85 0
scalar SlicingScenario.node[12].appl meanRxThroughput_85 0
scalar SlicingScenario.node[12].appl meanTxThroughput_85 0
scalar SlicingScenario.node[12].appl rxTimeOfService_85 0
scalar SlicingScenario.node[12].appl txTimeOfService_85 0
scalar SlicingScenario.node[12].appl txPackets_41_85 0
scalar SlicingScenario.node[12].appl rxPackets_41_85 183
scalar SlicingScenario.node[12].appl rxNeighborPackets_41_85 3535
scalar SlicingScenario.node[12].appl meanDelay_41_85 0.005128183354
scalar SlicingScenario.node[12].appl meanJitter_41_85 0.000105722918
scalar SlicingScenario.node[12].appl meanRxPacketSize_41_85 1510
scalar SlicingScenario.node[12].appl meanTxPacketSize_41_85 0
scalar SlicingScenario.node[12].appl meanRxThroughput_41_85 30364.331467835
scalar SlicingScenario.node[12].appl meanTxThroughput_41_85 0
scalar SlicingScenario.node[12].appl rxTimeOfService_41_85 72.803842308919
scalar SlicingScenario.node[12].appl txTimeOfService_41_85 0
scalar SlicingScenario.node[12].nic.phy80211p busyTime 0.13285878260871
scalar SlicingScenario.node[12].nic.phy80211p ncollisions 0
scalar SlicingScenario.node[12].nic.phy80211p UnderSensitivityPackets 709
scalar SlicingScenario.node[12].nic.mac1609_4 ReceivedUnicastPackets_CCH 0
scalar SlicingScenario.node[12].nic.mac1609_4 ReceivedBroadcasts_CCH 0
scalar SlicingScenario.node[12].nic.mac1609_4 SentPackets_CCH 0
scalar SlicingScenario.node[12].nic.mac1609_4 SentAcknowledgements_CCH 0
scalar SlicingScenario.node[12].nic.mac1609_4 SNIRLostPackets_CCH 0
scalar SlicingScenario.node[12].nic.mac1609_4 RXTXLostPackets_CCH 0
scalar SlicingScenario.node[12].nic.mac1609_4 TotalLostPackets_CCH 0
scalar SlicingScenario.node[12].nic.mac1609_4 DroppedPacketsInMac_CCH 0
scalar SlicingScenario.node[12].nic.mac1609_4 TooLittleTime_CCH 0
scalar SlicingScenario.node[12].nic.mac1609_4 TimesIntoBackoff_CCH 0
scalar SlicingScenario.node[12].nic.mac1609_4 SlotsBackoff_CCH 0
scalar SlicingScenario.node[12].nic.mac1609_4 NumInternalContention_CCH 0
scalar SlicingScenario.node[12].nic.mac1609_4 RemainingPacketsInEDCA_CCH 0
scalar SlicingScenario.node[12].nic.mac1609_4 totalBusyTime_CCH 0
scalar SlicingScenario.node[12].nic.mac1609_4 ReceivedUnicastPackets_SCH 0
scalar SlicingScenario.node[12].nic.mac1609_4 ReceivedBroadcasts_SCH 5922
scalar SlicingScenario.node[12].nic.mac1609_4 SentPackets_SCH 0
scalar SlicingScenario.node[12].nic.mac1609_4 SentAcknowledgements_SCH 0
scalar SlicingScenario.node[12].nic.mac1609_4 SNIRLostPackets_SCH 0
scalar SlicingScenario.node[12].nic.mac1609_4 RXTXLostPackets_SCH 0
scalar SlicingScenario.node[12].nic.mac1609_4 TotalLostPackets_SCH 0
scalar SlicingScenario.node[12].nic.mac1609_4 DroppedPacketsInMac_SCH 0
scalar SlicingScenario.node[12].nic.mac1609_4 TooLittleTime_SCH 0
scalar SlicingScenario.node[12].nic.mac1609_4 TimesIntoBackoff_SCH 0
scalar SlicingScenario.node[12].nic.mac1609_4 SlotsBackoff_SCH 0
scalar SlicingScenario.node[12].nic.mac1609_4 NumInternalContention_SCH 0
scalar SlicingScenario.node[12].nic.mac1609_4 RemainingPacketsInEDCA_SCH 0
scalar SlicingScenario.node[12].nic.mac1609_4 totalBusyTime_SCH 12.223008
scalar SlicingScenario.node[12].veinsmobility startTime 13
scalar SlicingScenario.node[12].veinsmobility totalTime 91
scalar SlicingScenario.node[12].veinsmobility stopTime 105
scalar SlicingScenario.node[12].veinsmobility minSpeed 10.614526092089
scalar SlicingScenario.node[12].veinsmobility maxSpeed 11.100139627596
scalar SlicingScenario.node[12].veinsmobility totalDistance 979.64848399472
scalar SlicingScenario.node[12].veinsmobility totalCO2Emission 160.30205494581
scalar SlicingScenario.node[13].appl txPackets_91 0
scalar SlicingScenario.node[13].appl rxPackets_91 0
scalar SlicingScenario.node[13].appl rxNeighborPackets_91 0
scalar SlicingScenario.node[13].appl meanDelay_91 0
scalar SlicingScenario.node[13].appl meanJitter_91 0
scalar SlicingScenario.node[13].appl meanRxPacketSize_91 0
scalar SlicingScenario.node[13].appl meanTxPacketSize_91 0
scalar SlicingScenario.node[13].appl meanRxThroughput_91 0
scalar SlicingScenario.node[13].appl meanTxThroughput_91 0
scalar SlicingScenario.node[13].appl rxTimeOfService_91 0
scalar SlicingScenario.node[13].appl txTimeOfService_91 0
scalar SlicingScenario.node[13].appl txPackets_41_91 0
scalar SlicingScenario.node[13].appl rxPackets_41_91 181
scalar SlicingScenario.node[13].appl rxNeighborPackets_41_91 3601
scalar SlicingScenario.node[13].appl meanDelay_41_91 0.002854124931
scalar SlicingScenario.node[13].appl meanJitter_41_91 6.4205859e-05
scalar SlicingScenario.node[13].appl meanRxPacketSize_41_91 1510
scalar SlicingScenario.node[13].appl meanTxPacketSize_41_91 0
scalar SlicingScenario.node[13].appl meanRxThroughput_41_91 30366.089785436
scalar SlicingScenario.node[13].appl meanTxThroughput_41_91 0
scalar SlicingScenario.node[13].appl rxTimeOfService_41_91 72.00400234108
scalar SlicingScenario.node[13].appl txTimeOfService_41_91 0
scalar SlicingScenario.node[13].nic.phy80211p busyTime 0.13543878260871
scalar SlicingScenario.node[13].nic.phy80211p ncollisions 0
scalar SlicingScenario.node[13].nic.phy80211p UnderSensitivityPackets 700
scalar SlicingScenario.node[13].nic.mac1609_4 ReceivedUnicastPackets_CCH 0
scalar SlicingScenario.node[13].nic.mac1609_4 ReceivedBroadcasts_CCH 0
scalar SlicingScenario.node[13].nic.mac1609_4 SentPackets_CCH 0
scalar SlicingScenario.node[13].nic.mac1609_4 SentAcknowledgements_CCH 0
scalar SlicingScenario.node[13].nic.mac1609_4 SNIRLostPackets_CCH 0
scalar SlicingScenario.node[13].nic.mac1609_4 RXTXLostPackets_CCH 0
scalar SlicingScenario.node[13].nic.mac1609_4 TotalLostPackets_CCH 0
scalar SlicingScenario.node[13].nic.mac1609_4 DroppedPacketsInMac_CCH 0
scalar SlicingScenario.node[13].nic.mac1609_4 TooLittleTime_CCH 0
scalar SlicingScenario.node[13].nic.mac1609_4 TimesIntoBackoff_CCH 0
scalar SlicingScenario.node[13].nic.mac1609_4 SlotsBackoff_CCH 0
scalar SlicingScenario.node[13].nic.mac1609_4 NumInternalContention_CCH 0
scalar SlicingScenario.node[13].nic.mac1609_4 RemainingPacketsInEDCA_CCH 0
scalar SlicingScenario.node[13].nic.mac1609_4 totalBusyTime_CCH 0
scalar SlicingScenario.node[13].nic.mac1609_4 ReceivedUnicastPackets_SCH 0
scalar SlicingScenario.node[13].nic.mac1609_4 ReceivedBroadcasts_SCH 6037
scalar SlicingScenario.node[13].nic.mac1609_4 SentPackets_SCH 0
scalar SlicingScenario.node[13].nic.mac1609_4 SentAcknowledgements_SCH 0
scalar SlicingScenario.node[13].nic.mac1609_4 SNIRLostPackets_SCH 0
scalar SlicingScenario.node[13].nic.mac1609_4 RXTXLostPackets_SCH 0
scalar SlicingScenario.node[13].nic.mac1609_4 TotalLostPackets_SCH 0
scalar SlicingScenario.node[13].nic.mac1609_4 DroppedPacketsInMac_SCH 0
scalar SlicingScenario.node[13].nic.mac1609_4 TooLittleTime_SCH 0
scalar SlicingScenario.node[13].nic.mac1609_4 TimesIntoBackoff_SCH 0
scalar SlicingScenario.node[13].nic.mac1609_4 SlotsBackoff_SCH 0
scalar SlicingScenario.node[13].nic.mac1609_4 NumInternalContention_SCH 0
scalar SlicingScenario.node[13].nic.mac1609_4 RemainingPacketsInEDCA_SCH 0
scalar SlicingScenario.node[13].nic.mac1609_4 totalBusyTime_SCH 12.460368
scalar SlicingScenario.node[13].veinsmobility startTime 14
scalar SlicingScenario.node[13].veinsmobility totalTime 91
scalar SlicingScenario.node[13].veinsmobility stopTime 106
scalar SlicingScenario.node[13].veinsmobility minSpeed 10.612543900046
scalar SlicingScenario.node[13].veinsmobility maxSpeed 11.108561062035
scalar SlicingScenario.node[13].veinsmobility totalDistance 978.86013170872
scalar SlicingScenario.node[13].veinsmobility totalCO2Emission 158.20712746129
scalar SlicingScenario.node[11].appl txPackets_79 0
scalar SlicingScenario.node[11].appl rxPackets_79 0
scalar SlicingScenario.node[11].appl rxNeighborPackets_79 0
scalar SlicingScenario.node[11].appl meanDelay_79 0
scalar SlicingScenario.node[11].appl meanJitter_79 0
scalar SlicingScenario.node[11].appl meanRxPacketSize_79 0
scalar SlicingScenario.node[11].appl meanTxPacketSize_79 0
scalar SlicingScenario.node[11].appl meanRxThroughput_79 0
scalar SlicingScenario.node[11].appl meanTxThroughput_79 0
scalar SlicingScenario.node[11].appl rxTimeOfService_79 0
scalar SlicingScenario.node[11].appl txTimeOfService_79 0
scalar SlicingScenario.node[11].appl txPackets_41_79 0
scalar SlicingScenario.node[11].appl rxPackets_41_79 191
scalar SlicingScenario.node[11].appl rxNeighborPackets_41_79 3602
scalar SlicingScenario.node[11].appl meanDelay_41_79 0.00302283438
scalar SlicingScenario.node[11].appl meanJitter_41_79 7.6983736e-05
scalar SlicingScenario.node[11].appl meanRxPacketSize_41_79 1510
scalar SlicingScenario.node[11].appl meanTxPacketSize_41_79 0
scalar SlicingScenario.node[11].appl meanRxThroughput_41_79 30358.385240651
scalar SlicingScenario.node[11].appl meanTxThroughput_41_79 0
scalar SlicingScenario.node[11].appl rxTimeOfService_41_79 76.001407245813
scalar SlicingScenario.node[11].appl txTimeOfService_41_79 0
scalar SlicingScenario.node[11].nic.phy80211p busyTime 0.13295234042554
scalar SlicingScenario.node[11].nic.phy80211p ncollisions 0
scalar SlicingScenario.node[11].nic.phy80211p UnderSensitivityPackets 711
scalar SlicingScenario.node[11].nic.mac1609_4 ReceivedUnicastPackets_CCH 0
scalar SlicingScenario.node[11].nic.mac1609_4 ReceivedBroadcasts_CCH 0
scalar SlicingScenario.node[11].nic.mac1609_4 SentPackets_CCH 0
scalar SlicingScenario.node[11].nic.mac1609_4 SentAcknowledgements_CCH 0
scalar SlicingScenario.node[11].nic.mac1609_4 SNIRLostPackets_CCH 0
scalar SlicingScenario.node[11].nic.mac1609_4 RXTXLostPackets_CCH 0
scalar SlicingScenario.node[11].nic.mac1609_4 TotalLostPackets_CCH 0
scalar SlicingScenario.node[11].nic.mac1609_4 DroppedPacketsInMac_CCH 0
scalar SlicingScenario.node[11].nic.mac1609_4 TooLittleTime_CCH 0
scalar SlicingScenario.node[11].nic.mac1609_4 TimesIntoBackoff_CCH 0
scalar SlicingScenario.node[11].nic.mac1609_4 SlotsBackoff_CCH 0
scalar SlicingScenario.node[11].nic.mac1609_4 NumInternalContention_CCH 0
scalar SlicingScenario.node[11].nic.mac1609_4 RemainingPacketsInEDCA_CCH 0
scalar SlicingScenario.node[11].nic.mac1609_4 totalBusyTime_CCH 0
scalar SlicingScenario.node[11].nic.mac1609_4 ReceivedUnicastPackets_SCH 0
scalar SlicingScenario.node[11].nic.mac1609_4 ReceivedBroadcasts_SCH 6055
scalar SlicingScenario.node[11].nic.mac1609_4 SentPackets_SCH 0
scalar SlicingScenario.node[11].nic.mac1609_4 SentAcknowledgements_SCH 0
scalar SlicingScenario.node[11].nic.mac1609_4 SNIRLostPackets_SCH 0
scalar SlicingScenario.node[11].nic.mac1609_4 RXTXLostPackets_SCH 0
scalar SlicingScenario.node[11].nic.mac1609_4 TotalLostPackets_SCH 0
scalar SlicingScenario.node[11].nic.mac1609_4 DroppedPacketsInMac_SCH 0
scalar SlicingScenario.node[11].nic.mac1609_4 TooLittleTime_SCH 0
scalar SlicingScenario.node[11].nic.mac1609_4 TimesIntoBackoff_SCH 0
scalar SlicingScenario.node[11].nic.mac1609_4 SlotsBackoff_SCH 0
scalar SlicingScenario.node[11].nic.mac1609_4 NumInternalContention_SCH 0
scalar SlicingScenario.node[11].nic.mac1609_4 RemainingPacketsInEDCA_SCH 0
scalar SlicingScenario.node[11].nic.mac1609_4 totalBusyTime_SCH 12.49752
scalar SlicingScenario.node[11].veinsmobility startTime 12
scalar SlicingScenario.node[11].veinsmobility totalTime 93
scalar SlicingScenario.node[11].veinsmobility stopTime 106
scalar SlicingScenario.node[11].veinsmobility minSpeed 7.6661716915616
scalar SlicingScenario.node[11].veinsmobility maxSpeed 11.105983050205
scalar SlicingScenario.node[11].veinsmobility totalDistance 984.52864314437
scalar SlicingScenario.node[11].veinsmobility totalCO2Emission 170.09769695434
scalar SlicingScenario.node[14].appl txPackets_97 0
scalar SlicingScenario.node[14].appl rxPackets_97 0
scalar SlicingScenario.node[14].appl rxNeighborPackets_97 0
scalar SlicingScenario.node[14].appl meanDelay_97 0
scalar SlicingScenario.node[14].appl meanJitter_97 0
scalar SlicingScenario.node[14].appl meanRxPacketSize_97 0
scalar SlicingScenario.node[14].appl meanTxPacketSize_97 0
scalar SlicingScenario.node[14].appl meanRxThroughput_97 0
scalar SlicingScenario.node[14].appl meanTxThroughput_97 0
scalar SlicingScenario.node[14].appl rxTimeOfService_97 0
scalar SlicingScenario.node[14].appl txTimeOfService_97 0
scalar SlicingScenario.node[14].appl txPackets_41_97 0
scalar SlicingScenario.node[14].appl rxPackets_41_97 182
scalar SlicingScenario.node[14].appl rxNeighborPackets_41_97 3713
scalar SlicingScenario.node[14].appl meanDelay_41_97 0.002070146416
scalar SlicingScenario.node[14].appl meanJitter_41_97 1.1655224e-05
scalar SlicingScenario.node[14].appl meanRxPacketSize_41_97 1510
scalar SlicingScenario.node[14].appl meanTxPacketSize_41_97 0
scalar SlicingScenario.node[14].appl meanRxThroughput_41_97 30366.853192746
scalar SlicingScenario.node[14].appl meanTxThroughput_41_97 0
scalar SlicingScenario.node[14].appl rxTimeOfService_41_97 72.399994363763
scalar SlicingScenario.node[14].appl txTimeOfService_41_97 0
scalar SlicingScenario.node[14].nic.phy80211p busyTime 0.13859870967743
scalar SlicingScenario.node[14].nic.phy80211p ncollisions 0
scalar SlicingScenario.node[14].nic.phy80211p UnderSensitivityPackets 740
scalar SlicingScenario.node[14].nic.mac1609_4 ReceivedUnicastPackets_CCH 0
scalar SlicingScenario.node[14].nic.mac1609_4 ReceivedBroadcasts_CCH 0
scalar SlicingScenario.node[14].nic.mac1609_4 SentPackets_CCH 0
scalar SlicingScenario.node[14].nic.mac1609_4 SentAcknowledgements_CCH 0
scalar SlicingScenario.node[14].nic.mac1609_4 SNIRLostPackets_CCH 0
scalar SlicingScenario.node[14].nic.mac1609_4 RXTXLostPackets_CCH 0
scalar SlicingScenario.node[14].nic.mac1609_4 TotalLostPackets_CCH 0
scalar SlicingScenario.node[14].nic.mac1609_4 DroppedPacketsInMac_CCH 0
scalar SlicingScenario.node[14].nic.mac1609_4 TooLittleTime_CCH 0
scalar SlicingScenario.node[14].nic.mac1609_4 TimesIntoBackoff_CCH 0
scalar SlicingScenario.node[14].nic.mac1609_4 SlotsBackoff_CCH 0
scalar SlicingScenario.node[14].nic.mac1609_4 NumInternalContention_CCH 0
scalar SlicingScenario.node[14].nic.mac1609_4 RemainingPacketsInEDCA_CCH 0
scalar SlicingScenario.node[14].nic.mac1609_4 totalBusyTime_CCH 0
scalar SlicingScenario.node[14].nic.mac1609_4 ReceivedUnicastPackets_SCH 0
scalar SlicingScenario.node[14].nic.mac1609_4 ReceivedBroadcasts_SCH 6245
scalar SlicingScenario.node[14].nic.mac1609_4 SentPackets_SCH 0
scalar SlicingScenario.node[14].nic.mac1609_4 SentAcknowledgements_SCH 0
scalar SlicingScenario.node[14].nic.mac1609_4 SNIRLostPackets_SCH 0
scalar SlicingScenario.node[14].nic.mac1609_4 RXTXLostPackets_SCH 0
scalar SlicingScenario.node[14].nic.mac1609_4 TotalLostPackets_SCH 0
scalar SlicingScenario.node[14].nic.mac1609_4 DroppedPacketsInMac_SCH 0
scalar SlicingScenario.node[14].nic.mac1609_4 TooLittleTime_SCH 0
scalar SlicingScenario.node[14].nic.mac1609_4 TimesIntoBackoff_SCH 0
scalar SlicingScenario.node[14].nic.mac1609_4 SlotsBackoff_SCH 0
scalar SlicingScenario.node[14].nic.mac1609_4 NumInternalContention_SCH 0
scalar SlicingScenario.node[14].nic.mac1609_4 RemainingPacketsInEDCA_SCH 0
scalar SlicingScenario.node[14].nic.mac1609_4 totalBusyTime_SCH 12.88968
scalar SlicingScenario.node[14].veinsmobility startTime 15
scalar SlicingScenario.node[14].veinsmobility totalTime 92
scalar SlicingScenario.node[14].veinsmobility stopTime 108
scalar SlicingScenario.node[14].veinsmobility minSpeed 8.3016210273937
scalar SlicingScenario.node[14].veinsmobility maxSpeed 11.092588754385
scalar SlicingScenario.node[14].veinsmobility totalDistance 981.69767012766
scalar SlicingScenario.node[14].veinsmobility totalCO2Emission 167.26313127204
scalar SlicingScenario.node[15].appl txPackets_103 0
scalar SlicingScenario.node[15].appl rxPackets_103 0
scalar SlicingScenario.node[15].appl rxNeighborPackets_103 0
scalar SlicingScenario.node[15].appl meanDelay_103 0
scalar SlicingScenario.node[15].appl meanJitter_103 0
scalar SlicingScenario.node[15].appl meanRxPacketSize_103 0
scalar SlicingScenario.node[15].appl meanTxPacketSize_103 0
scalar SlicingScenario.node[15].appl meanRxThroughput_103 0
scalar SlicingScenario.node[15].appl meanTxThroughput_103 0
scalar SlicingScenario.node[15].appl rxTimeOfService_103 0
scalar SlicingScenario.node[15].appl txTimeOfService_103 0
scalar SlicingScenario.node[15].appl txPackets_41_103 0
scalar SlicingScenario.node[15].appl rxPackets_41_103 176
scalar SlicingScenario.node[15].appl rxNeighborPackets_41_103 3719
scalar SlicingScenario.node[15].appl meanDelay_41_103 0.002264480299
scalar SlicingScenario.node[15].appl meanJitter_41_103 2.5985245e-05
scalar SlicingScenario.node[15].appl meanRxPacketSize_41_103 1510
scalar SlicingScenario.node[15].appl meanTxPacketSize_41_103 0
scalar SlicingScenario.node[15].appl meanRxThroughput_41_103 30371.870094422
scalar SlicingScenario.node[15].appl meanTxThroughput_41_103 0
scalar SlicingScenario.node[15].appl rxTimeOfService_41_103 70.001616409865
scalar SlicingScenario.node[15].appl txTimeOfService_41_103 0
scalar SlicingScenario.node[15].nic.phy80211p busyTime 0.14010521739132
scalar SlicingScenario.node[15].nic.phy80211p ncollisions 0
scalar SlicingScenario.node[15].nic.phy80211p UnderSensitivityPackets 724
scalar SlicingScenario.node[15].nic.mac1609_4 ReceivedUnicastPackets_CCH 0
scalar SlicingScenario.node[15].nic.mac1609_4 ReceivedBroadcasts_CCH 0
scalar SlicingScenario.node[15].nic.mac1609_4 SentPackets_CCH 0
scalar SlicingScenario.node[15].nic.mac1609_4 SentAcknowledgements_CCH 0
scalar SlicingScenario.node[15].nic.mac1609_4 SNIRLostPackets_CCH 0
scalar SlicingScenario.node[15].nic.mac1609_4 RXTXLostPackets_CCH 0
scalar SlicingScenario.node[15].nic.mac1609_4 TotalLostPackets_CCH 0
scalar SlicingScenario.node[15].nic.mac1609_4 DroppedPacketsInMac_CCH 0
scalar SlicingScenario.node[15].nic.mac1609_4 TooLittleTime_CCH 0
scalar SlicingScenario.node[15].nic.mac1609_4 TimesIntoBackoff_CCH 0
scalar SlicingScenario.node[15].nic.mac1609_4 SlotsBackoff_CCH 0
scalar SlicingScenario.node[15].nic.mac1609_4 NumInternalContention_CCH 0
scalar SlicingScenario.node[15].nic.mac1609_4 RemainingPacketsInEDCA_CCH 0
scalar SlicingScenario.node[15].nic.mac1609_4 totalBusyTime_CCH 0
scalar SlicingScenario.node[15].nic.mac1609_4 ReceivedUnicastPackets_SCH 0
scalar SlicingScenario.node[15].nic.mac1609_4 ReceivedBroadcasts_SCH 6245
scalar SlicingScenario.node[15].nic.mac1609_4 SentPackets_SCH 0
scalar SlicingScenario.node[15].nic.mac1609_4 SentAcknowledgements_SCH 0
scalar SlicingScenario.node[15].nic.mac1609_4 SNIRLostPackets_SCH 0
scalar SlicingScenario.node[15].nic.mac1609_4 RXTXLostPackets_SCH 0
scalar SlicingScenario.node[15].nic.mac1609_4 TotalLostPackets_SCH 0
scalar SlicingScenario.node[15].nic.mac1609_4 DroppedPacketsInMac_SCH 0
scalar SlicingScenario.node[15].nic.mac1609_4 TooLittleTime_SCH 0
scalar SlicingScenario.node[15].nic.mac1609_4 TimesIntoBackoff_SCH 0
scalar SlicingScenario.node[15].nic.mac1609_4 SlotsBackoff_SCH 0
scalar SlicingScenario.node[15].nic.mac1609_4 NumInternalContention_SCH 0
scalar SlicingScenario.node[15].nic.mac1609_4 RemainingPacketsInEDCA_SCH 0
scalar SlicingScenario.node[15].nic.mac1609_4 totalBusyTime_SCH 12.88968
scalar SlicingScenario.node[15].veinsmobility startTime 16
scalar SlicingScenario.node[15].veinsmobility totalTime 91
scalar SlicingScenario.node[15].veinsmobility stopTime 108
scalar SlicingScenario.node[15].veinsmobility minSpeed 10.61541227404
scalar SlicingScenario.node[15].veinsmobility maxSpeed 11.105170982671
scalar SlicingScenario.node[15].veinsmobility totalDistance 977.49373812694
scalar SlicingScenario.node[15].veinsmobility totalCO2Emission 157.16188309928
scalar SlicingScenario.node[16].appl txPackets_109 0
scalar SlicingScenario.node[16].appl rxPackets_109 0
scalar SlicingScenario.node[16].appl rxNeighborPackets_109 0
scalar SlicingScenario.node[16].appl meanDelay_109 0
scalar SlicingScenario.node[16].appl meanJitter_109 0
scalar SlicingScenario.node[16].appl meanRxPacketSize_109 0
scalar SlicingScenario.node[16].appl meanTxPacketSize_109 0
scalar SlicingScenario.node[16].appl meanRxThroughput_109 0
scalar SlicingScenario.node[16].appl meanTxThroughput_109 0
scalar SlicingScenario.node[16].appl rxTimeOfService_109 0
scalar SlicingScenario.node[16].appl txTimeOfService_109 0
scalar SlicingScenario.node[16].appl txPackets_40_109 0
scalar SlicingScenario.node[16].appl rxPackets_40_109 175
scalar SlicingScenario.node[16].appl rxNeighborPackets_40_109 2218
scalar SlicingScenario.node[16].appl meanDelay_40_109 0.005035925828
scalar SlicingScenario.node[16].appl meanJitter_40_109 0.000146417192
scalar SlicingScenario.node[16].appl meanRxPacketSize_40_109 1510
scalar SlicingScenario.node[16].appl meanTxPacketSize_40_109 0
scalar SlicingScenario.node[16].appl meanRxThroughput_40_109 30369.627622715
scalar SlicingScenario.node[16].appl meanTxThroughput_40_109 0
scalar SlicingScenario.node[16].appl rxTimeOfService_40_109 69.609019453991
scalar SlicingScenario.node[16].appl txTimeOfService_40_109 0
scalar SlicingScenario.node[16].nic.phy80211p busyTime 0.14216921739132
scalar SlicingScenario.node[16].nic.phy80211p ncollisions 0
scalar SlicingScenario.node[16].nic.phy80211p UnderSensitivityPackets 756
scalar SlicingScenario.node[16].nic.mac1609_4 ReceivedUnicastPackets_CCH 0
scalar SlicingScenario.node[16].nic.mac1609_4 ReceivedBroadcasts_CCH 0
scalar SlicingScenario.node[16].nic.mac1609_4 SentPackets_CCH 0
scalar SlicingScenario.node[16].nic.mac1609_4 SentAcknowledgements_CCH 0
scalar SlicingScenario.node[16].nic.mac1609_4 SNIRLostPackets_CCH 0
scalar SlicingScenario.node[16].nic.mac1609_4 RXTXLostPackets_CCH 0
scalar SlicingScenario.node[16].nic.mac1609_4 TotalLostPackets_CCH 0
scalar SlicingScenario.node[16].nic.mac1609_4 DroppedPacketsInMac_CCH 0
scalar SlicingScenario.node[16].nic.mac1609_4 TooLittleTime_CCH 0
scalar SlicingScenario.node[16].nic.mac1609_4 TimesIntoBackoff_CCH 0
scalar SlicingScenario.node[16].nic.mac1609_4 SlotsBackoff_CCH 0
scalar SlicingScenario.node[16].nic.mac1609_4 NumInternalContention_CCH 0
scalar SlicingScenario.node[16].nic.mac1609_4 RemainingPacketsInEDCA_CCH 0
scalar SlicingScenario.node[16].nic.mac1609_4 totalBusyTime_CCH 0
scalar SlicingScenario.node[16].nic.mac1609_4 ReceivedUnicastPackets_SCH 0
scalar SlicingScenario.node[16].nic.mac1609_4 ReceivedBroadcasts_SCH 6337
scalar SlicingScenario.node[16].nic.mac1609_4 SentPackets_SCH 0
scalar SlicingScenario.node[16].nic.mac1609_4 SentAcknowledgements_SCH 0
scalar SlicingScenario.node[16].nic.mac1609_4 SNIRLostPackets_SCH 0
scalar SlicingScenario.node[16].nic.mac1609_4 RXTXLostPackets_SCH 0
scalar SlicingScenario.node[16].nic.mac1609_4 TotalLostPackets_SCH 0
scalar SlicingScenario.node[16].nic.mac1609_4 DroppedPacketsInMac_SCH 0
scalar SlicingScenario.node[16].nic.mac1609_4 TooLittleTime_SCH 0
scalar SlicingScenario.node[16].nic.mac1609_4 TimesIntoBackoff_SCH 0
scalar SlicingScenario.node[16].nic.mac1609_4 SlotsBackoff_SCH 0
scalar SlicingScenario.node[16].nic.mac1609_4 NumInternalContention_SCH 0
scalar SlicingScenario.node[16].nic.mac1609_4 RemainingPacketsInEDCA_SCH 0
scalar SlicingScenario.node[16].nic.mac1609_4 totalBusyTime_SCH 13.079568
scalar SlicingScenario.node[16].veinsmobility startTime 17
scalar SlicingScenario.node[16].veinsmobility totalTime 91
scalar SlicingScenario.node[16].veinsmobility stopTime 109
scalar SlicingScenario.node[16].veinsmobility minSpeed 10.617785688038
scalar SlicingScenario.node[16].veinsmobility maxSpeed 11.101640644963
scalar SlicingScenario.node[16].veinsmobility totalDistance 978.78218229627
scalar SlicingScenario.node[16].veinsmobility totalCO2Emission 157.45982313419
scalar SlicingScenario.node[17].appl txPackets_115 0
scalar SlicingScenario.node[17].appl rxPackets_115 0
scalar SlicingScenario.node[17].appl rxNeighborPackets_115 0
scalar SlicingScenario.node[17].appl meanDelay_115 0
scalar SlicingScenario.node[17].appl meanJitter_115 0
scalar SlicingScenario.node[17].appl meanRxPacketSize_115 0
scalar SlicingScenario.node[17].appl meanTxPacketSize_115 0
scalar SlicingScenario.node[17].appl meanRxThroughput_115 0
scalar SlicingScenario.node[17].appl meanTxThroughput_115 0
scalar SlicingScenario.node[17].appl rxTimeOfService_115 0
scalar SlicingScenario.node[17].appl txTimeOfService_115 0
scalar SlicingScenario.node[17].appl txPackets_40_115 0
scalar SlicingScenario.node[17].appl rxPackets_40_115 171
scalar SlicingScenario.node[17].appl rxNeighborPackets_40_115 2271
scalar SlicingScenario.node[17].appl meanDelay_40_115 0.05880857124
scalar SlicingScenario.node[17].appl meanJitter_40_115 0.00037886613
scalar SlicingScenario.node[17].appl meanRxPacketSize_40_115 1510
scalar SlicingScenario.node[17].appl meanTxPacketSize_40_115 0
scalar SlicingScenario.node[17].appl meanRxThroughput_40_115 30377.64684185
scalar SlicingScenario.node[17].appl meanTxThroughput_40_115 0
scalar SlicingScenario.node[17].appl rxTimeOfService_40_115 68.000000485692
scalar SlicingScenario.node[17].appl txTimeOfService_40_115 0
scalar SlicingScenario.node[17].nic.phy80211p busyTime 0.14479408695654
scalar SlicingScenario.node[17].nic.phy80211p ncollisions 0
scalar SlicingScenario.node[17].nic.phy80211p UnderSensitivityPackets 745
scalar SlicingScenario.node[17].nic.mac1609_4 ReceivedUnicastPackets_CCH 0
scalar SlicingScenario.node[17].nic.mac1609_4 ReceivedBroadcasts_CCH 0
scalar SlicingScenario.node[17].nic.mac1609_4 SentPackets_CCH 0
scalar SlicingScenario.node[17].nic.mac1609_4 SentAcknowledgements_CCH 0
scalar SlicingScenario.node[17].nic.mac1609_4 SNIRLostPackets_CCH 0
scalar SlicingScenario.node[17].nic.mac1609_4 RXTXLostPackets_CCH 0
scalar SlicingScenario.node[17].nic.mac1609_4 TotalLostPackets_CCH 0
scalar SlicingScenario.node[17].nic.mac1609_4 DroppedPacketsInMac_CCH 0
scalar SlicingScenario.node[17].nic.mac1609_4 TooLittleTime_CCH 0
scalar SlicingScenario.node[17].nic.mac1609_4 TimesIntoBackoff_CCH 0
scalar SlicingScenario.node[17].nic.mac1609_4 SlotsBackoff_CCH 0
scalar SlicingScenario.node[17].nic.mac1609_4 NumInternalContention_CCH 0
scalar SlicingScenario.node[17].nic.mac1609_4 RemainingPacketsInEDCA_CCH 0
scalar SlicingScenario.node[17].nic.mac1609_4 totalBusyTime_CCH 0
scalar SlicingScenario.node[17].nic.mac1609_4 ReceivedUnicastPackets_SCH 0
scalar SlicingScenario.node[17].nic.mac1609_4 ReceivedBroadcasts_SCH 6454
scalar SlicingScenario.node[17].nic.mac1609_4 SentPackets_SCH 0
scalar SlicingScenario.node[17].nic.mac1609_4 SentAcknowledgements_SCH 0
scalar SlicingScenario.node[17].nic.mac1609_4 SNIRLostPackets_SCH 0
scalar SlicingScenario.node[17].nic.mac1609_4 RXTXLostPackets_SCH 0
scalar SlicingScenario.node[17].nic.mac1609_4 TotalLostPackets_SCH 0
scalar SlicingScenario.node[17].nic.mac1609_4 DroppedPacketsInMac_SCH 0
scalar SlicingScenario.node[17].nic.mac1609_4 TooLittleTime_SCH 0
scalar SlicingScenario.node[17].nic.mac1609_4 TimesIntoBackoff_SCH 0
scalar SlicingScenario.node[17].nic.mac1609_4 SlotsBackoff_SCH 0
scalar SlicingScenario.node[17].nic.mac1609_4 NumInternalContention_SCH 0
scalar SlicingScenario.node[17].nic.mac1609_4 RemainingPacketsInEDCA_SCH 0
scalar SlicingScenario.node[17].nic.mac1609_4 totalBusyTime_SCH 13.321056
scalar SlicingScenario.node[17].veinsmobility startTime 18
scalar SlicingScenario.node[17].veinsmobility totalTime 91
scalar SlicingScenario.node[17].veinsmobility stopTime 110
scalar SlicingScenario.node[17].veinsmobility minSpeed 10.611084561576
scalar SlicingScenario.node[17].veinsmobility maxSpeed 11.109173178803
scalar SlicingScenario.node[17].veinsmobility totalDistance 979.9950937409
scalar SlicingScenario.node[17].veinsmobility totalCO2Emission 159.07800211648
scalar SlicingScenario.node[18].appl txPackets_121 0
scalar SlicingScenario.node[18].appl rxPackets_121 0
scalar SlicingScenario.node[18].appl rxNeighborPackets_121 0
scalar SlicingScenario.node[18].appl meanDelay_121 0
scalar SlicingScenario.node[18].appl meanJitter_121 0
scalar SlicingScenario.node[18].appl meanRxPacketSize_121 0
scalar SlicingScenario.node[18].appl meanTxPacketSize_121 0
scalar SlicingScenario.node[18].appl meanRxThroughput_121 0
scalar SlicingScenario.node[18].appl meanTxThroughput_121 0
scalar SlicingScenario.node[18].appl rxTimeOfService_121 0
scalar SlicingScenario.node[18].appl txTimeOfService_121 0
scalar SlicingScenario.node[18].appl txPackets_40_121 0
scalar SlicingScenario.node[18].appl rxPackets_40_121 170
scalar SlicingScenario.node[18].appl rxNeighborPackets_40_121 2313
scalar SlicingScenario.node[18].appl meanDelay_40_121 0.002436265195
scalar SlicingScenario.node[18].appl meanJitter_40_121 6.2392668e-05
scalar SlicingScenario.node[18].appl meanRxPacketSize_40_121 1510
scalar SlicingScenario.node[18].appl meanTxPacketSize_40_121 0
scalar SlicingScenario.node[18].appl meanRxThroughput_40_121 30377.446493946
scalar SlicingScenario.node[18].appl meanTxThroughput_40_121 0
scalar SlicingScenario.node[18].appl rxTimeOfService_40_121 67.602785520806
scalar SlicingScenario.node[18].appl txTimeOfService_40_121 0
scalar SlicingScenario.node[18].nic.phy80211p busyTime 0.14679078260871
scalar SlicingScenario.node[18].nic.phy80211p ncollisions 0
scalar SlicingScenario.node[18].nic.phy80211p UnderSensitivityPackets 781
scalar SlicingScenario.node[18].nic.mac1609_4 ReceivedUnicastPackets_CCH 0
scalar SlicingScenario.node[18].nic.mac1609_4 ReceivedBroadcasts_CCH 0
scalar SlicingScenario.node[18].nic.mac1609_4 SentPackets_CCH 0
scalar SlicingScenario.node[18].nic.mac1609_4 SentAcknowledgements_CCH 0
scalar SlicingScenario.node[18].nic.mac1609_4 SNIRLostPackets_CCH 0
scalar SlicingScenario.node[18].nic.mac1609_4 RXTXLostPackets_CCH 0
scalar SlicingScenario.node[18].nic.mac1609_4 TotalLostPackets_CCH 0
scalar SlicingScenario.node[18].nic.mac1609_4 DroppedPacketsInMac_CCH 0
scalar SlicingScenario.node[18].nic.mac1609_4 TooLittleTime_CCH 0
scalar SlicingScenario.node[18].nic.mac1609_4 TimesIntoBackoff_CCH 0
scalar SlicingScenario.node[18].nic.mac1609_4 SlotsBackoff_CCH 0
scalar SlicingScenario.node[18].nic.mac1609_4 NumInternalContention_CCH 0
scalar SlicingScenario.node[18].nic.mac1609_4 RemainingPacketsInEDCA_CCH 0
scalar SlicingScenario.node[18].nic.mac1609_4 totalBusyTime_CCH 0
scalar SlicingScenario.node[18].nic.mac1609_4 ReceivedUnicastPackets_SCH 0
scalar SlicingScenario.node[18].nic.mac1609_4 ReceivedBroadcasts_SCH 6543
scalar SlicingScenario.node[18].nic.mac1609_4 SentPackets_SCH 0
scalar SlicingScenario.node[18].nic.mac1609_4 SentAcknowledgements_SCH 0
scalar SlicingScenario.node[18].nic.mac1609_4 SNIRLostPackets_SCH 0
scalar SlicingScenario.node[18].nic.mac1609_4 RXTXLostPackets_SCH 0
scalar SlicingScenario.node[18].nic.mac1609_4 TotalLostPackets_SCH 0
scalar SlicingScenario.node[18].nic.mac1609_4 DroppedPacketsInMac_SCH 0
scalar SlicingScenario.node[18].nic.mac1609_4 TooLittleTime_SCH 0
scalar SlicingScenario.node[18].nic.mac1609_4 TimesIntoBackoff_SCH 0
scalar SlicingScenario.node[18].nic.mac1609_4 SlotsBackoff_SCH 0
scalar SlicingScenario.node[18].nic.mac1609_4 NumInternalContention_SCH 0
scalar SlicingScenario.node[18].nic.mac1609_4 RemainingPacketsInEDCA_SCH 0
scalar SlicingScenario.node[18].nic.mac1609_4 totalBusyTime_SCH 13.504752
scalar SlicingScenario.node[18].veinsmobility startTime 19
scalar SlicingScenario.node[18].veinsmobility totalTime 91
scalar SlicingScenario.node[18].veinsmobility stopTime 111
scalar SlicingScenario.node[18].veinsmobility minSpeed 10.61619225949
scalar SlicingScenario.node[18].veinsmobility maxSpeed 11.092322438969
scalar SlicingScenario.node[18].veinsmobility totalDistance 978.39892301116
scalar SlicingScenario.node[18].veinsmobility totalCO2Emission 158.41849419715
scalar SlicingScenario.node[19].appl txPackets_127 0
scalar SlicingScenario.node[19].appl rxPackets_127 0
scalar SlicingScenario.node[19].appl rxNeighborPackets_127 0
scalar SlicingScenario.node[19].appl meanDelay_127 0
scalar SlicingScenario.node[19].appl meanJitter_127 0
scalar SlicingScenario.node[19].appl meanRxPacketSize_127 0
scalar SlicingScenario.node[19].appl meanTxPacketSize_127 0
scalar SlicingScenario.node[19].appl meanRxThroughput_127 0
scalar SlicingScenario.node[19].appl meanTxThroughput_127 0
scalar SlicingScenario.node[19].appl rxTimeOfService_127 0
scalar SlicingScenario.node[19].appl txTimeOfService_127 0
scalar SlicingScenario.node[19].appl txPackets_41_127 0
scalar SlicingScenario.node[19].appl rxPackets_41_127 167
scalar SlicingScenario.node[19].appl rxNeighborPackets_41_127 3963
scalar SlicingScenario.node[19].appl meanDelay_41_127 0.007462594796
scalar SlicingScenario.node[19].appl meanJitter_41_127 0.000176892957
scalar SlicingScenario.node[19].appl meanRxPacketSize_41_127 1510
scalar SlicingScenario.node[19].appl meanTxPacketSize_41_127 0
scalar SlicingScenario.node[19].appl meanRxThroughput_41_127 30376.158275491
scalar SlicingScenario.node[19].appl meanTxThroughput_41_127 0
scalar SlicingScenario.node[19].appl rxTimeOfService_41_127 66.412611552255
scalar SlicingScenario.node[19].appl txTimeOfService_41_127 0
scalar SlicingScenario.node[19].nic.phy80211p busyTime 0.14946052173915
scalar SlicingScenario.node[19].nic.phy80211p ncollisions 0
scalar SlicingScenario.node[19].nic.phy80211p UnderSensitivityPackets 769
scalar SlicingScenario.node[19].nic.mac1609_4 ReceivedUnicastPackets_CCH 0
scalar SlicingScenario.node[19].nic.mac1609_4 ReceivedBroadcasts_CCH 0
[...]
scalar SlicingScenario.rsu[0].appl rxNeighborPackets_41_151 0
scalar SlicingScenario.rsu[0].appl meanDelay_41_151 0
scalar SlicingScenario.rsu[0].appl meanJitter_41_151 0
scalar SlicingScenario.rsu[0].appl meanRxPacketSize_41_151 0
scalar SlicingScenario.rsu[0].appl meanTxPacketSize_41_151 1510
scalar SlicingScenario.rsu[0].appl meanRxThroughput_41_151 0
scalar SlicingScenario.rsu[0].appl meanTxThroughput_41_151 30226.773049645
scalar SlicingScenario.rsu[0].appl rxTimeOfService_41_151 0
scalar SlicingScenario.rsu[0].appl txTimeOfService_41_151 451.2
scalar SlicingScenario.rsu[0].appl txPackets_41_163 1120
scalar SlicingScenario.rsu[0].appl rxPackets_41_163 0
scalar SlicingScenario.rsu[0].appl rxNeighborPackets_41_163 0
scalar SlicingScenario.rsu[0].appl meanDelay_41_163 0
scalar SlicingScenario.rsu[0].appl meanJitter_41_163 0
scalar SlicingScenario.rsu[0].appl meanRxPacketSize_41_163 0
scalar SlicingScenario.rsu[0].appl meanTxPacketSize_41_163 1510
scalar SlicingScenario.rsu[0].appl meanRxThroughput_41_163 0
scalar SlicingScenario.rsu[0].appl meanTxThroughput_41_163 30226.988382484
scalar SlicingScenario.rsu[0].appl rxTimeOfService_41_163 0
scalar SlicingScenario.rsu[0].appl txTimeOfService_41_163 447.6
scalar SlicingScenario.rsu[0].appl txPackets_41_169 1113
scalar SlicingScenario.rsu[0].appl rxPackets_41_169 0
scalar SlicingScenario.rsu[0].appl rxNeighborPackets_41_169 0
scalar SlicingScenario.rsu[0].appl meanDelay_41_169 0
scalar SlicingScenario.rsu[0].appl meanJitter_41_169 0
scalar SlicingScenario.rsu[0].appl meanRxPacketSize_41_169 0
scalar SlicingScenario.rsu[0].appl meanTxPacketSize_41_169 1510
scalar SlicingScenario.rsu[0].appl meanRxThroughput_41_169 0
scalar SlicingScenario.rsu[0].appl meanTxThroughput_41_169 30227.158273381
scalar SlicingScenario.rsu[0].appl rxTimeOfService_41_169 0
scalar SlicingScenario.rsu[0].appl txTimeOfService_41_169 444.8
scalar SlicingScenario.rsu[0].appl txPackets_41_181 1104
scalar SlicingScenario.rsu[0].appl rxPackets_41_181 0
scalar SlicingScenario.rsu[0].appl rxNeighborPackets_41_181 0
scalar SlicingScenario.rsu[0].appl meanDelay_41_181 0
scalar SlicingScenario.rsu[0].appl meanJitter_41_181 0
scalar SlicingScenario.rsu[0].appl meanRxPacketSize_41_181 0
scalar SlicingScenario.rsu[0].appl meanTxPacketSize_41_181 1510
scalar SlicingScenario.rsu[0].appl meanRxThroughput_41_181 0
scalar SlicingScenario.rsu[0].appl meanTxThroughput_41_181 30227.379873073
scalar SlicingScenario.rsu[0].appl rxTimeOfService_41_181 0
scalar SlicingScenario.rsu[0].appl txTimeOfService_41_181 441.2
scalar SlicingScenario.rsu[0].appl txPackets_41_193 1094
scalar SlicingScenario.rsu[0].appl rxPackets_41_193 0
scalar SlicingScenario.rsu[0].appl rxNeighborPackets_41_193 0
scalar SlicingScenario.rsu[0].appl meanDelay_41_193 0
scalar SlicingScenario.rsu[0].appl meanJitter_41_193 0
scalar SlicingScenario.rsu[0].appl meanRxPacketSize_41_193 0
scalar SlicingScenario.rsu[0].appl meanTxPacketSize_41_193 1510
scalar SlicingScenario.rsu[0].appl meanRxThroughput_41_193 0
scalar SlicingScenario.rsu[0].appl meanTxThroughput_41_193 30227.630375114
scalar SlicingScenario.rsu[0].appl rxTimeOfService_41_193 0
scalar SlicingScenario.rsu[0].appl txTimeOfService_41_193 437.2
scalar SlicingScenario.rsu[0].appl txPackets_41_199 1088
scalar SlicingScenario.rsu[0].appl rxPackets_41_199 0
scalar SlicingScenario.rsu[0].appl rxNeighborPackets_41_199 0
scalar SlicingScenario.rsu[0].appl meanDelay_41_199 0
scalar SlicingScenario.rsu[0].appl meanJitter_41_199 0
scalar SlicingScenario.rsu[0].appl meanRxPacketSize_41_199 0
scalar SlicingScenario.rsu[0].appl meanTxPacketSize_41_199 1510
scalar SlicingScenario.rsu[0].appl meanRxThroughput_41_199 0
scalar SlicingScenario.rsu[0].appl meanTxThroughput_41_199 30227.782888684
scalar SlicingScenario.rsu[0].appl rxTimeOfService_41_199 0
scalar SlicingScenario.rsu[0].appl txTimeOfService_41_199 434.8
scalar SlicingScenario.rsu[0].appl txPackets_41_217 1073
scalar SlicingScenario.rsu[0].appl rxPackets_41_217 0
scalar SlicingScenario.rsu[0].appl rxNeighborPackets_41_217 0
scalar SlicingScenario.rsu[0].appl meanDelay_41_217 0
scalar SlicingScenario.rsu[0].appl meanJitter_41_217 0
scalar SlicingScenario.rsu[0].appl meanRxPacketSize_41_217 0
scalar SlicingScenario.rsu[0].appl meanTxPacketSize_41_217 1510
scalar SlicingScenario.rsu[0].appl meanRxThroughput_41_217 0
scalar SlicingScenario.rsu[0].appl meanTxThroughput_41_217 30228.171641791
scalar SlicingScenario.rsu[0].appl rxTimeOfService_41_217 0
scalar SlicingScenario.rsu[0].appl txTimeOfService_41_217 428.8
scalar SlicingScenario.rsu[0].appl txPackets_41_223 1070
scalar SlicingScenario.rsu[0].appl rxPackets_41_223 0
scalar SlicingScenario.rsu[0].appl rxNeighborPackets_41_223 0
scalar SlicingScenario.rsu[0].appl meanDelay_41_223 0
scalar SlicingScenario.rsu[0].appl meanJitter_41_223 0
scalar SlicingScenario.rsu[0].appl meanRxPacketSize_41_223 0
scalar SlicingScenario.rsu[0].appl meanTxPacketSize_41_223 1510
scalar SlicingScenario.rsu[0].appl meanRxThroughput_41_223 0
scalar SlicingScenario.rsu[0].appl meanTxThroughput_41_223 30228.25070159
scalar SlicingScenario.rsu[0].appl rxTimeOfService_41_223 0
scalar SlicingScenario.rsu[0].appl txTimeOfService_41_223 427.6
scalar SlicingScenario.rsu[0].appl txPackets_41_229 1064
scalar SlicingScenario.rsu[0].appl rxPackets_41_229 0
scalar SlicingScenario.rsu[0].appl rxNeighborPackets_41_229 0
scalar SlicingScenario.rsu[0].appl meanDelay_41_229 0
scalar SlicingScenario.rsu[0].appl meanJitter_41_229 0
scalar SlicingScenario.rsu[0].appl meanRxPacketSize_41_229 0
scalar SlicingScenario.rsu[0].appl meanTxPacketSize_41_229 1510
scalar SlicingScenario.rsu[0].appl meanRxThroughput_41_229 0
scalar SlicingScenario.rsu[0].appl meanTxThroughput_41_229 30228.410159925
scalar SlicingScenario.rsu[0].appl rxTimeOfService_41_229 0
scalar SlicingScenario.rsu[0].appl txTimeOfService_41_229 425.2
scalar SlicingScenario.rsu[0].appl txPackets_41_235 1060
scalar SlicingScenario.rsu[0].appl rxPackets_41_235 0
scalar SlicingScenario.rsu[0].appl rxNeighborPackets_41_235 0
scalar SlicingScenario.rsu[0].appl meanDelay_41_235 0
scalar SlicingScenario.rsu[0].appl meanJitter_41_235 0
scalar SlicingScenario.rsu[0].appl meanRxPacketSize_41_235 0
scalar SlicingScenario.rsu[0].appl meanTxPacketSize_41_235 1510
scalar SlicingScenario.rsu[0].appl meanRxThroughput_41_235 0
scalar SlicingScenario.rsu[0].appl meanTxThroughput_41_235 30228.517469311
scalar SlicingScenario.rsu[0].appl rxTimeOfService_41_235 0
scalar SlicingScenario.rsu[0].appl txTimeOfService_41_235 423.6
scalar SlicingScenario.rsu[0].appl txPackets_41_259 1040
scalar SlicingScenario.rsu[0].appl rxPackets_41_259 0
scalar SlicingScenario.rsu[0].appl rxNeighborPackets_41_259 0
scalar SlicingScenario.rsu[0].appl meanDelay_41_259 0
scalar SlicingScenario.rsu[0].appl meanJitter_41_259 0
scalar SlicingScenario.rsu[0].appl meanRxPacketSize_41_259 0
scalar SlicingScenario.rsu[0].appl meanTxPacketSize_41_259 1510
scalar SlicingScenario.rsu[0].appl meanRxThroughput_41_259 0
scalar SlicingScenario.rsu[0].appl meanTxThroughput_41_259 30229.06641001
scalar SlicingScenario.rsu[0].appl rxTimeOfService_41_259 0
scalar SlicingScenario.rsu[0].appl txTimeOfService_41_259 415.6
scalar SlicingScenario.rsu[0].appl txPackets_41_289 1014
scalar SlicingScenario.rsu[0].appl rxPackets_41_289 0
scalar SlicingScenario.rsu[0].appl rxNeighborPackets_41_289 0
scalar SlicingScenario.rsu[0].appl meanDelay_41_289 0
scalar SlicingScenario.rsu[0].appl meanJitter_41_289 0
scalar SlicingScenario.rsu[0].appl meanRxPacketSize_41_289 0
scalar SlicingScenario.rsu[0].appl meanTxPacketSize_41_289 1510
scalar SlicingScenario.rsu[0].appl meanRxThroughput_41_289 0
scalar SlicingScenario.rsu[0].appl meanTxThroughput_41_289 30229.812438302
scalar SlicingScenario.rsu[0].appl rxTimeOfService_41_289 0
scalar SlicingScenario.rsu[0].appl txTimeOfService_41_289 405.2
scalar SlicingScenario.rsu[0].appl txPackets_41_307 999
scalar SlicingScenario.rsu[0].appl rxPackets_41_307 0
scalar SlicingScenario.rsu[0].appl rxNeighborPackets_41_307 0
scalar SlicingScenario.rsu[0].appl meanDelay_41_307 0
scalar SlicingScenario.rsu[0].appl meanJitter_41_307 0
scalar SlicingScenario.rsu[0].appl meanRxPacketSize_41_307 0
scalar SlicingScenario.rsu[0].appl meanTxPacketSize_41_307 1510
scalar SlicingScenario.rsu[0].appl meanRxThroughput_41_307 0
scalar SlicingScenario.rsu[0].appl meanTxThroughput_41_307 30230.260521042
scalar SlicingScenario.rsu[0].appl rxTimeOfService_41_307 0
scalar SlicingScenario.rsu[0].appl txTimeOfService_41_307 399.2
scalar SlicingScenario.rsu[0].appl txPackets_41_313 993
scalar SlicingScenario.rsu[0].appl rxPackets_41_313 0
scalar SlicingScenario.rsu[0].appl rxNeighborPackets_41_313 0
scalar SlicingScenario.rsu[0].appl meanDelay_41_313 0
scalar SlicingScenario.rsu[0].appl meanJitter_41_313 0
scalar SlicingScenario.rsu[0].appl meanRxPacketSize_41_313 0
scalar SlicingScenario.rsu[0].appl meanTxPacketSize_41_313 1510
scalar SlicingScenario.rsu[0].appl meanRxThroughput_41_313 0
scalar SlicingScenario.rsu[0].appl meanTxThroughput_41_313 30230.443548387
scalar SlicingScenario.rsu[0].appl rxTimeOfService_41_313 0
scalar SlicingScenario.rsu[0].appl txTimeOfService_41_313 396.8
scalar SlicingScenario.rsu[0].appl txPackets_41_319 989
scalar SlicingScenario.rsu[0].appl rxPackets_41_319 0
scalar SlicingScenario.rsu[0].appl rxNeighborPackets_41_319 0
scalar SlicingScenario.rsu[0].appl meanDelay_41_319 0
scalar SlicingScenario.rsu[0].appl meanJitter_41_319 0
scalar SlicingScenario.rsu[0].appl meanRxPacketSize_41_319 0
scalar SlicingScenario.rsu[0].appl meanTxPacketSize_41_319 1510
scalar SlicingScenario.rsu[0].appl meanRxThroughput_41_319 0
scalar SlicingScenario.rsu[0].appl meanTxThroughput_41_319 30230.566801619
scalar SlicingScenario.rsu[0].appl rxTimeOfService_41_319 0
scalar SlicingScenario.rsu[0].appl txTimeOfService_41_319 395.2
scalar SlicingScenario.rsu[0].appl txPackets_41_325 985
scalar SlicingScenario.rsu[0].appl rxPackets_41_325 0
scalar SlicingScenario.rsu[0].appl rxNeighborPackets_41_325 0
scalar SlicingScenario.rsu[0].appl meanDelay_41_325 0
scalar SlicingScenario.rsu[0].appl meanJitter_41_325 0
scalar SlicingScenario.rsu[0].appl meanRxPacketSize_41_325 0
scalar SlicingScenario.rsu[0].appl meanTxPacketSize_41_325 1510
scalar SlicingScenario.rsu[0].appl meanRxThroughput_41_325 0
scalar SlicingScenario.rsu[0].appl meanTxThroughput_41_325 30230.691056911
scalar SlicingScenario.rsu[0].appl rxTimeOfService_41_325 0
scalar SlicingScenario.rsu[0].appl txTimeOfService_41_325 393.6
scalar SlicingScenario.rsu[0].appl txPackets_41_331 979
scalar SlicingScenario.rsu[0].appl rxPackets_41_331 0
scalar SlicingScenario.rsu[0].appl rxNeighborPackets_41_331 0
scalar SlicingScenario.rsu[0].appl meanDelay_41_331 0
scalar SlicingScenario.rsu[0].appl meanJitter_41_331 0
scalar SlicingScenario.rsu[0].appl meanRxPacketSize_41_331 0
scalar SlicingScenario.rsu[0].appl meanTxPacketSize_41_331 1510
scalar SlicingScenario.rsu[0].appl meanRxThroughput_41_331 0
scalar SlicingScenario.rsu[0].appl meanTxThroughput_41_331 30230.879345603
scalar SlicingScenario.rsu[0].appl rxTimeOfService_41_331 0
scalar SlicingScenario.rsu[0].appl txTimeOfService_41_331 391.2
scalar SlicingScenario.rsu[0].appl txPackets_41_337 975
scalar SlicingScenario.rsu[0].appl rxPackets_41_337 0
scalar SlicingScenario.rsu[0].appl rxNeighborPackets_41_337 0
scalar SlicingScenario.rsu[0].appl meanDelay_41_337 0
scalar SlicingScenario.rsu[0].appl meanJitter_41_337 0
scalar SlicingScenario.rsu[0].appl meanRxPacketSize_41_337 0
scalar SlicingScenario.rsu[0].appl meanTxPacketSize_41_337 1510
scalar SlicingScenario.rsu[0].appl meanRxThroughput_41_337 0
scalar SlicingScenario.rsu[0].appl meanTxThroughput_41_337 30231.006160164
scalar SlicingScenario.rsu[0].appl rxTimeOfService_41_337 0
scalar SlicingScenario.rsu[0].appl txTimeOfService_41_337 389.6
scalar SlicingScenario.rsu[0].appl txPackets_41_343 969
scalar SlicingScenario.rsu[0].appl rxPackets_41_343 0
scalar SlicingScenario.rsu[0].appl rxNeighborPackets_41_343 0
scalar SlicingScenario.rsu[0].appl meanDelay_41_343 0
scalar SlicingScenario.rsu[0].appl meanJitter_41_343 0
scalar SlicingScenario.rsu[0].appl meanRxPacketSize_41_343 0
scalar SlicingScenario.rsu[0].appl meanTxPacketSize_41_343 1510
scalar SlicingScenario.rsu[0].appl meanRxThroughput_41_343 0
scalar SlicingScenario.rsu[0].appl meanTxThroughput_41_343 30231.198347107
scalar SlicingScenario.rsu[0].appl rxTimeOfService_41_343 0
scalar SlicingScenario.rsu[0].appl txTimeOfService_41_343 387.2
scalar SlicingScenario.rsu[0].appl txPackets_41_355 959
scalar SlicingScenario.rsu[0].appl rxPackets_41_355 0
scalar SlicingScenario.rsu[0].appl rxNeighborPackets_41_355 0
scalar SlicingScenario.rsu[0].appl meanDelay_41_355 0
scalar SlicingScenario.rsu[0].appl meanJitter_41_355 0
scalar SlicingScenario.rsu[0].appl meanRxPacketSize_41_355 0
scalar SlicingScenario.rsu[0].appl meanTxPacketSize_41_355 1510
scalar SlicingScenario.rsu[0].appl meanRxThroughput_41_355 0
scalar SlicingScenario.rsu[0].appl meanTxThroughput_41_355 30231.524008351
scalar SlicingScenario.rsu[0].appl rxTimeOfService_41_355 0
scalar SlicingScenario.rsu[0].appl txTimeOfService_41_355 383.2
scalar SlicingScenario.rsu[0].appl txPackets_41_403 919
scalar SlicingScenario.rsu[0].appl rxPackets_41_403 0
scalar SlicingScenario.rsu[0].appl rxNeighborPackets_41_403 0
scalar SlicingScenario.rsu[0].appl meanDelay_41_403 0
scalar SlicingScenario.rsu[0].appl meanJitter_41_403 0
scalar SlicingScenario.rsu[0].appl meanRxPacketSize_41_403 0
scalar SlicingScenario.rsu[0].appl meanTxPacketSize_41_403 1510
scalar SlicingScenario.rsu[0].appl meanRxThroughput_41_403 0
scalar SlicingScenario.rsu[0].appl meanTxThroughput_41_403 30232.897603486
scalar SlicingScenario.rsu[0].appl rxTimeOfService_41_403 0
scalar SlicingScenario.rsu[0].appl txTimeOfService_41_403 367.2
scalar SlicingScenario.rsu[0].appl txPackets_41_409 915
scalar SlicingScenario.rsu[0].appl rxPackets_41_409 0
scalar SlicingScenario.rsu[0].appl rxNeighborPackets_41_409 0
scalar SlicingScenario.rsu[0].appl meanDelay_41_409 0
scalar SlicingScenario.rsu[0].appl meanJitter_41_409 0
scalar SlicingScenario.rsu[0].appl meanRxPacketSize_41_409 0
scalar SlicingScenario.rsu[0].appl meanTxPacketSize_41_409 1510
scalar SlicingScenario.rsu[0].appl meanRxThroughput_41_409 0
scalar SlicingScenario.rsu[0].appl meanTxThroughput_41_409 30233.041575492
scalar SlicingScenario.rsu[0].appl rxTimeOfService_41_409 0
scalar SlicingScenario.rsu[0].appl txTimeOfService_41_409 365.6
scalar SlicingScenario.rsu[0].appl txPackets_41_427 899
scalar SlicingScenario.rsu[0].appl rxPackets_41_427 0
scalar SlicingScenario.rsu[0].appl rxNeighborPackets_41_427 0
scalar SlicingScenario.rsu[0].appl meanDelay_41_427 0
scalar SlicingScenario.rsu[0].appl meanJitter_41_427 0
scalar SlicingScenario.rsu[0].appl meanRxPacketSize_41_427 0
scalar SlicingScenario.rsu[0].appl meanTxPacketSize_41_427 1510
scalar SlicingScenario.rsu[0].appl meanRxThroughput_41_427 0
scalar SlicingScenario.rsu[0].appl meanTxThroughput_41_427 30233.630289532
scalar SlicingScenario.rsu[0].appl rxTimeOfService_41_427 0
scalar SlicingScenario.rsu[0].appl txTimeOfService_41_427 359.2
scalar SlicingScenario.rsu[0].appl txPackets_41_433 893
scalar SlicingScenario.rsu[0].appl rxPackets_41_433 0
scalar SlicingScenario.rsu[0].appl rxNeighborPackets_41_433 0
scalar SlicingScenario.rsu[0].appl meanDelay_41_433 0
scalar SlicingScenario.rsu[0].appl meanJitter_41_433 0
scalar SlicingScenario.rsu[0].appl meanRxPacketSize_41_433 0
scalar SlicingScenario.rsu[0].appl meanTxPacketSize_41_433 1510
scalar SlicingScenario.rsu[0].appl meanRxThroughput_41_433 0
scalar SlicingScenario.rsu[0].appl meanTxThroughput_41_433 30233.856502242
scalar SlicingScenario.rsu[0].appl rxTimeOfService_41_433 0
scalar SlicingScenario.rsu[0].appl txTimeOfService_41_433 356.8
scalar SlicingScenario.rsu[0].appl txPackets_41_439 890
scalar SlicingScenario.rsu[0].appl rxPackets_41_439 0
scalar SlicingScenario.rsu[0].appl rxNeighborPackets_41_439 0
scalar SlicingScenario.rsu[0].appl meanDelay_41_439 0
scalar SlicingScenario.rsu[0].appl meanJitter_41_439 0
scalar SlicingScenario.rsu[0].appl meanRxPacketSize_41_439 0
scalar SlicingScenario.rsu[0].appl meanTxPacketSize_41_439 1510
scalar SlicingScenario.rsu[0].appl meanRxThroughput_41_439 0
scalar SlicingScenario.rsu[0].appl meanTxThroughput_41_439 30233.970753656
scalar SlicingScenario.rsu[0].appl rxTimeOfService_41_439 0
scalar SlicingScenario.rsu[0].appl txTimeOfService_41_439 355.6
scalar SlicingScenario.rsu[0].appl txPackets_41_469 863
scalar SlicingScenario.rsu[0].appl rxPackets_41_469 0
scalar SlicingScenario.rsu[0].appl rxNeighborPackets_41_469 0
scalar SlicingScenario.rsu[0].appl meanDelay_41_469 0
scalar SlicingScenario.rsu[0].appl meanJitter_41_469 0
scalar SlicingScenario.rsu[0].appl meanRxPacketSize_41_469 0
scalar SlicingScenario.rsu[0].appl meanTxPacketSize_41_469 1510
scalar SlicingScenario.rsu[0].appl meanRxThroughput_41_469 0
scalar SlicingScenario.rsu[0].appl meanTxThroughput_41_469 30235.034802784
scalar SlicingScenario.rsu[0].appl rxTimeOfService_41_469 0
scalar SlicingScenario.rsu[0].appl txTimeOfService_41_469 344.8
scalar SlicingScenario.rsu[0].appl txPackets_41_475 859
scalar SlicingScenario.rsu[0].appl rxPackets_41_475 0
scalar SlicingScenario.rsu[0].appl rxNeighborPackets_41_475 0
scalar SlicingScenario.rsu[0].appl meanDelay_41_475 0
scalar SlicingScenario.rsu[0].appl meanJitter_41_475 0
scalar SlicingScenario.rsu[0].appl meanRxPacketSize_41_475 0
scalar SlicingScenario.rsu[0].appl meanTxPacketSize_41_475 1510
scalar SlicingScenario.rsu[0].appl meanRxThroughput_41_475 0
scalar SlicingScenario.rsu[0].appl meanTxThroughput_41_475 30235.198135198
scalar SlicingScenario.rsu[0].appl rxTimeOfService_41_475 0
scalar SlicingScenario.rsu[0].appl txTimeOfService_41_475 343.2
scalar SlicingScenario.rsu[0].nic.phy80211p busyTime 0
scalar SlicingScenario.rsu[0].nic.phy80211p ncollisions 0
scalar SlicingScenario.rsu[0].nic.phy80211p UnderSensitivityPackets 0
scalar SlicingScenario.rsu[0].nic.mac1609_4 ReceivedUnicastPackets_CCH 0
scalar SlicingScenario.rsu[0].nic.mac1609_4 ReceivedBroadcasts_CCH 0
scalar SlicingScenario.rsu[0].nic.mac1609_4 SentPackets_CCH 0
scalar SlicingScenario.rsu[0].nic.mac1609_4 SentAcknowledgements_CCH 0
scalar SlicingScenario.rsu[0].nic.mac1609_4 SNIRLostPackets_CCH 0
scalar SlicingScenario.rsu[0].nic.mac1609_4 RXTXLostPackets_CCH 0
scalar SlicingScenario.rsu[0].nic.mac1609_4 TotalLostPackets_CCH 0
scalar SlicingScenario.rsu[0].nic.mac1609_4 DroppedPacketsInMac_CCH 0
scalar SlicingScenario.rsu[0].nic.mac1609_4 TooLittleTime_CCH 0
scalar SlicingScenario.rsu[0].nic.mac1609_4 TimesIntoBackoff_CCH 0
scalar SlicingScenario.rsu[0].nic.mac1609_4 SlotsBackoff_CCH 0
scalar SlicingScenario.rsu[0].nic.mac1609_4 NumInternalContention_CCH 0
scalar SlicingScenario.rsu[0].nic.mac1609_4 RemainingPacketsInEDCA_CCH 0
scalar SlicingScenario.rsu[0].nic.mac1609_4 totalBusyTime_CCH 0
scalar SlicingScenario.rsu[0].nic.mac1609_4 ReceivedUnicastPackets_SCH 0
scalar SlicingScenario.rsu[0].nic.mac1609_4 ReceivedBroadcasts_SCH 0
scalar SlicingScenario.rsu[0].nic.mac1609_4 SentPackets_SCH 83715
scalar SlicingScenario.rsu[0].nic.mac1609_4 SentAcknowledgements_SCH 0
scalar SlicingScenario.rsu[0].nic.mac1609_4 SNIRLostPackets_SCH 0
scalar SlicingScenario.rsu[0].nic.mac1609_4 RXTXLostPackets_SCH 0
scalar SlicingScenario.rsu[0].nic.mac1609_4 TotalLostPackets_SCH 0
scalar SlicingScenario.rsu[0].nic.mac1609_4 DroppedPacketsInMac_SCH 0
scalar SlicingScenario.rsu[0].nic.mac1609_4 TooLittleTime_SCH 45693
scalar SlicingScenario.rsu[0].nic.mac1609_4 TimesIntoBackoff_SCH 87422
scalar SlicingScenario.rsu[0].nic.mac1609_4 SlotsBackoff_SCH 293732
scalar SlicingScenario.rsu[0].nic.mac1609_4 NumInternalContention_SCH 0
scalar SlicingScenario.rsu[0].nic.mac1609_4 RemainingPacketsInEDCA_SCH 2
scalar SlicingScenario.rsu[0].nic.mac1609_4 totalBusyTime_SCH 172.871475

