version 2
run General-334-20190223-14:46:06-13715
attr configname General
attr datetime 20190223-14:46:06
attr experiment General
attr inifile omnetpp.ini
attr iterationvars "$vehicles=160, $msgSizeA=1500B, $serviceMsgInterval=1s"
attr iterationvarsf vehicles=160,msgSizeA=1500B,serviceMsgInterval=1s-
attr measurement "$vehicles=160, $msgSizeA=1500B, $serviceMsgInterval=1s"
attr network com.liborio.slicing.SlicingScenario
attr processid 13715
attr repetition 4
attr replication #4
attr resultdir results
attr runnumber 334
attr seedset 4
itervar msgSizeA 1500B
itervar serviceMsgInterval 1s
itervar vehicles 160
param **.debug false
param **.coreDebug false
param *.playgroundSizeX 1200m
param *.playgroundSizeY 1200m
param *.playgroundSizeZ 50m
param *.annotations.draw true
param *.manager.updateInterval 1s
param *.manager.host "\"localhost\""
param *.manager.port 9999
param *.manager.autoShutdown true
param *.manager.launchConfig "xmldoc(\"highway-\"+string(160)+\".launchd.xml\")"
param *.connectionManager.sendDirect true
param *.connectionManager.maxInterfDist 2600m
param *.connectionManager.drawMaxIntfDist false
param *.rsu[*].applType "\"RSUApp\""
param *.rsu[*].appl.headerLength "80 bit"
param *.rsu[*].appl.sendBeacons false
param *.rsu[*].appl.dataOnSch true
param *.rsu[*].appl.beaconInterval 1s
param *.rsu[*].appl.beaconUserPriority 7
param *.rsu[*].appl.dataUserPriority 5
param *.rsu[*].appl.entMsgADataLengthBytes 1500B
param *.rsu[*].appl.entMsgAUserPriority 4
param *.rsu[*].appl.entMsgAInterval 1s
param *.rsu[*].appl.entMsgBDataLengthBytes 1500B
param *.rsu[*].appl.entMsgBUserPriority 4
param *.rsu[*].appl.entMsgBInterval 1s
param *.rsu[*].nic.mac1609_4.useServiceChannel true
param *.rsu[*].nic.mac1609_4.txPower 20mW
param *.rsu[*].nic.mac1609_4.bitrate 6Mbps
param *.rsu[*].nic.phy80211p.sensitivity -90.00dBm
param *.rsu[0].mobility.x 515.0
param *.rsu[0].mobility.y 25.0
param *.rsu[0].mobility.z 3
param *.node[*].applType "\"VehApp\""
param *.node[*].appl.headerLength "80 bit"
param *.node[*].appl.sendBeacons false
param *.node[*].appl.dataOnSch true
param *.node[*].appl.beaconInterval 1s
param *.node[*].appl.wsaInterval 1s
param *.node[*].appl.entMsgADataLengthBits 1500B
param *.node[*].appl.entMsgAUserPriority 4
param *.node[*].appl.entMsgAInterval 1s
param *.node[*].appl.entMsgBDataLengthBits 1500B
param *.node[*].appl.entMsgBUserPriority 4
param *.node[*].appl.entMsgBInterval 1s
param *.node[*].nic.mac1609_4.useServiceChannel true
param *.node[*].nic.mac1609_4.txPower 20mW
param *.node[*].nic.mac1609_4.bitrate 6Mbps
param *.node[*].nic.phy80211p.sensitivity -90.00dBm
param *.node[*].veinsmobilityType.debug true
param *.node[*].veinsmobility.x 0
param *.node[*].veinsmobility.y 0
param *.node[*].veinsmobility.z 1.895
param *.**.nic.phy80211p.useThermalNoise true
param *.**.nic.phy80211p.thermalNoise -110dBm
param *.**.nic.phy80211p.decider "xmldoc(\"config.xml\")"
param *.**.nic.phy80211p.analogueModels "xmldoc(\"config.xml\")"
param *.**.nic.phy80211p.usePropagationDelay true
param *.**.nic.phy80211p.antenna "xmldoc(\"antenna.xml\", \"/root/Antenna[@id='monopole']\")"
param *.**.nic.phy80211p.collectCollisionStatistics true
param *.**.nic.phy80211p.allowTxDuringRx false

scalar SlicingScenario.node[0].appl txPackets_13 0
scalar SlicingScenario.node[0].appl rxPackets_13 0
scalar SlicingScenario.node[0].appl rxNeighborPackets_13 0
scalar SlicingScenario.node[0].appl meanDelay_13 0
scalar SlicingScenario.node[0].appl meanJitter_13 0
scalar SlicingScenario.node[0].appl meanRxPacketSize_13 0
scalar SlicingScenario.node[0].appl meanTxPacketSize_13 0
scalar SlicingScenario.node[0].appl meanRxThroughput_13 0
scalar SlicingScenario.node[0].appl meanTxThroughput_13 0
scalar SlicingScenario.node[0].appl rxTimeOfService_13 0
scalar SlicingScenario.node[0].appl txTimeOfService_13 0
scalar SlicingScenario.node[0].appl txPackets_40_13 0
scalar SlicingScenario.node[0].appl rxPackets_40_13 83
scalar SlicingScenario.node[0].appl rxNeighborPackets_40_13 809
scalar SlicingScenario.node[0].appl meanDelay_40_13 0.002727464374
scalar SlicingScenario.node[0].appl meanJitter_40_13 5.9081567e-05
scalar SlicingScenario.node[0].appl meanRxPacketSize_40_13 1510
scalar SlicingScenario.node[0].appl meanTxPacketSize_40_13 0
scalar SlicingScenario.node[0].appl meanRxThroughput_40_13 12227.019900668
scalar SlicingScenario.node[0].appl meanTxThroughput_40_13 0
scalar SlicingScenario.node[0].appl rxTimeOfService_40_13 82.001992975018
scalar SlicingScenario.node[0].appl txTimeOfService_40_13 0
scalar SlicingScenario.node[0].nic.phy80211p busyTime 0.042154956521738
scalar SlicingScenario.node[0].nic.phy80211p ncollisions 0
scalar SlicingScenario.node[0].nic.phy80211p UnderSensitivityPackets 228
scalar SlicingScenario.node[0].nic.mac1609_4 ReceivedUnicastPackets_CCH 0
scalar SlicingScenario.node[0].nic.mac1609_4 ReceivedBroadcasts_CCH 0
scalar SlicingScenario.node[0].nic.mac1609_4 SentPackets_CCH 0
scalar SlicingScenario.node[0].nic.mac1609_4 SentAcknowledgements_CCH 0
scalar SlicingScenario.node[0].nic.mac1609_4 SNIRLostPackets_CCH 0
scalar SlicingScenario.node[0].nic.mac1609_4 RXTXLostPackets_CCH 0
scalar SlicingScenario.node[0].nic.mac1609_4 TotalLostPackets_CCH 0
scalar SlicingScenario.node[0].nic.mac1609_4 DroppedPacketsInMac_CCH 0
scalar SlicingScenario.node[0].nic.mac1609_4 TooLittleTime_CCH 0
scalar SlicingScenario.node[0].nic.mac1609_4 TimesIntoBackoff_CCH 0
scalar SlicingScenario.node[0].nic.mac1609_4 SlotsBackoff_CCH 0
scalar SlicingScenario.node[0].nic.mac1609_4 NumInternalContention_CCH 0
scalar SlicingScenario.node[0].nic.mac1609_4 RemainingPacketsInEDCA_CCH 0
scalar SlicingScenario.node[0].nic.mac1609_4 totalBusyTime_CCH 0
scalar SlicingScenario.node[0].nic.mac1609_4 ReceivedUnicastPackets_SCH 0
scalar SlicingScenario.node[0].nic.mac1609_4 ReceivedBroadcasts_SCH 1879
scalar SlicingScenario.node[0].nic.mac1609_4 SentPackets_SCH 0
scalar SlicingScenario.node[0].nic.mac1609_4 SentAcknowledgements_SCH 0
scalar SlicingScenario.node[0].nic.mac1609_4 SNIRLostPackets_SCH 0
scalar SlicingScenario.node[0].nic.mac1609_4 RXTXLostPackets_SCH 0
scalar SlicingScenario.node[0].nic.mac1609_4 TotalLostPackets_SCH 0
scalar SlicingScenario.node[0].nic.mac1609_4 DroppedPacketsInMac_SCH 0
scalar SlicingScenario.node[0].nic.mac1609_4 TooLittleTime_SCH 0
scalar SlicingScenario.node[0].nic.mac1609_4 TimesIntoBackoff_SCH 0
scalar SlicingScenario.node[0].nic.mac1609_4 SlotsBackoff_SCH 0
scalar SlicingScenario.node[0].nic.mac1609_4 NumInternalContention_SCH 0
scalar SlicingScenario.node[0].nic.mac1609_4 RemainingPacketsInEDCA_SCH 0
scalar SlicingScenario.node[0].nic.mac1609_4 totalBusyTime_SCH 3.878256
scalar SlicingScenario.node[0].veinsmobility startTime 1
scalar SlicingScenario.node[0].veinsmobility totalTime 91
scalar SlicingScenario.node[0].veinsmobility stopTime 93
scalar SlicingScenario.node[0].veinsmobility minSpeed 10.618864095551
scalar SlicingScenario.node[0].veinsmobility maxSpeed 11.105059675304
scalar SlicingScenario.node[0].veinsmobility totalDistance 977.4717191648
scalar SlicingScenario.node[0].veinsmobility totalCO2Emission 159.17901609149
scalar SlicingScenario.node[2].appl txPackets_25 0
scalar SlicingScenario.node[2].appl rxPackets_25 0
scalar SlicingScenario.node[2].appl rxNeighborPackets_25 0
scalar SlicingScenario.node[2].appl meanDelay_25 0
scalar SlicingScenario.node[2].appl meanJitter_25 0
scalar SlicingScenario.node[2].appl meanRxPacketSize_25 0
scalar SlicingScenario.node[2].appl meanTxPacketSize_25 0
scalar SlicingScenario.node[2].appl meanRxThroughput_25 0
scalar SlicingScenario.node[2].appl meanTxThroughput_25 0
scalar SlicingScenario.node[2].appl rxTimeOfService_25 0
scalar SlicingScenario.node[2].appl txTimeOfService_25 0
scalar SlicingScenario.node[2].appl txPackets_40_25 0
scalar SlicingScenario.node[2].appl rxPackets_40_25 83
scalar SlicingScenario.node[2].appl rxNeighborPackets_40_25 842
scalar SlicingScenario.node[2].appl meanDelay_40_25 0.002077427714
scalar SlicingScenario.node[2].appl meanJitter_40_25 2.5500411e-05
scalar SlicingScenario.node[2].appl meanRxPacketSize_40_25 1510
scalar SlicingScenario.node[2].appl meanTxPacketSize_40_25 0
scalar SlicingScenario.node[2].appl meanRxThroughput_40_25 12227.318417478
scalar SlicingScenario.node[2].appl meanTxThroughput_40_25 0
scalar SlicingScenario.node[2].appl rxTimeOfService_40_25 81.999990984677
scalar SlicingScenario.node[2].appl txTimeOfService_40_25 0
scalar SlicingScenario.node[2].nic.phy80211p busyTime 0.044017043478259
scalar SlicingScenario.node[2].nic.phy80211p ncollisions 0
scalar SlicingScenario.node[2].nic.phy80211p UnderSensitivityPackets 237
scalar SlicingScenario.node[2].nic.mac1609_4 ReceivedUnicastPackets_CCH 0
scalar SlicingScenario.node[2].nic.mac1609_4 ReceivedBroadcasts_CCH 0
scalar SlicingScenario.node[2].nic.mac1609_4 SentPackets_CCH 0
scalar SlicingScenario.node[2].nic.mac1609_4 SentAcknowledgements_CCH 0
scalar SlicingScenario.node[2].nic.mac1609_4 SNIRLostPackets_CCH 0
scalar SlicingScenario.node[2].nic.mac1609_4 RXTXLostPackets_CCH 0
scalar SlicingScenario.node[2].nic.mac1609_4 TotalLostPackets_CCH 0
scalar SlicingScenario.node[2].nic.mac1609_4 DroppedPacketsInMac_CCH 0
scalar SlicingScenario.node[2].nic.mac1609_4 TooLittleTime_CCH 0
scalar SlicingScenario.node[2].nic.mac1609_4 TimesIntoBackoff_CCH 0
scalar SlicingScenario.node[2].nic.mac1609_4 SlotsBackoff_CCH 0
scalar SlicingScenario.node[2].nic.mac1609_4 NumInternalContention_CCH 0
scalar SlicingScenario.node[2].nic.mac1609_4 RemainingPacketsInEDCA_CCH 0
scalar SlicingScenario.node[2].nic.mac1609_4 totalBusyTime_CCH 0
scalar SlicingScenario.node[2].nic.mac1609_4 ReceivedUnicastPackets_SCH 0
scalar SlicingScenario.node[2].nic.mac1609_4 ReceivedBroadcasts_SCH 1962
scalar SlicingScenario.node[2].nic.mac1609_4 SentPackets_SCH 0
scalar SlicingScenario.node[2].nic.mac1609_4 SentAcknowledgements_SCH 0
scalar SlicingScenario.node[2].nic.mac1609_4 SNIRLostPackets_SCH 0
scalar SlicingScenario.node[2].nic.mac1609_4 RXTXLostPackets_SCH 0
scalar SlicingScenario.node[2].nic.mac1609_4 TotalLostPackets_SCH 0
scalar SlicingScenario.node[2].nic.mac1609_4 DroppedPacketsInMac_SCH 0
scalar SlicingScenario.node[2].nic.mac1609_4 TooLittleTime_SCH 0
scalar SlicingScenario.node[2].nic.mac1609_4 TimesIntoBackoff_SCH 0
scalar SlicingScenario.node[2].nic.mac1609_4 SlotsBackoff_SCH 0
scalar SlicingScenario.node[2].nic.mac1609_4 NumInternalContention_SCH 0
scalar SlicingScenario.node[2].nic.mac1609_4 RemainingPacketsInEDCA_SCH 0
scalar SlicingScenario.node[2].nic.mac1609_4 totalBusyTime_SCH 4.049568
scalar SlicingScenario.node[2].veinsmobility startTime 3
scalar SlicingScenario.node[2].veinsmobility totalTime 91
scalar SlicingScenario.node[2].veinsmobility stopTime 95
scalar SlicingScenario.node[2].veinsmobility minSpeed 10.616570994621
scalar SlicingScenario.node[2].veinsmobility maxSpeed 11.107445522458
scalar SlicingScenario.node[2].veinsmobility totalDistance 979.12537582544
scalar SlicingScenario.node[2].veinsmobility totalCO2Emission 158.62806804241
scalar SlicingScenario.node[1].appl txPackets_19 0
scalar SlicingScenario.node[1].appl rxPackets_19 0
scalar SlicingScenario.node[1].appl rxNeighborPackets_19 0
scalar SlicingScenario.node[1].appl meanDelay_19 0
scalar SlicingScenario.node[1].appl meanJitter_19 0
scalar SlicingScenario.node[1].appl meanRxPacketSize_19 0
scalar SlicingScenario.node[1].appl meanTxPacketSize_19 0
scalar SlicingScenario.node[1].appl meanRxThroughput_19 0
scalar SlicingScenario.node[1].appl meanTxThroughput_19 0
scalar SlicingScenario.node[1].appl rxTimeOfService_19 0
scalar SlicingScenario.node[1].appl txTimeOfService_19 0
scalar SlicingScenario.node[1].appl txPackets_40_19 0
scalar SlicingScenario.node[1].appl rxPackets_40_19 83
scalar SlicingScenario.node[1].appl rxNeighborPackets_40_19 842
scalar SlicingScenario.node[1].appl meanDelay_40_19 0.002066844021
scalar SlicingScenario.node[1].appl meanJitter_40_19 2.5292337e-05
scalar SlicingScenario.node[1].appl meanRxPacketSize_40_19 1510
scalar SlicingScenario.node[1].appl meanTxPacketSize_40_19 0
scalar SlicingScenario.node[1].appl meanRxThroughput_40_19 12227.31647463
scalar SlicingScenario.node[1].appl meanTxThroughput_40_19 0
scalar SlicingScenario.node[1].appl rxTimeOfService_40_19 82.000004013993
scalar SlicingScenario.node[1].appl txTimeOfService_40_19 0
scalar SlicingScenario.node[1].nic.phy80211p busyTime 0.043543741935482
scalar SlicingScenario.node[1].nic.phy80211p ncollisions 0
scalar SlicingScenario.node[1].nic.phy80211p UnderSensitivityPackets 238
scalar SlicingScenario.node[1].nic.mac1609_4 ReceivedUnicastPackets_CCH 0
scalar SlicingScenario.node[1].nic.mac1609_4 ReceivedBroadcasts_CCH 0
scalar SlicingScenario.node[1].nic.mac1609_4 SentPackets_CCH 0
scalar SlicingScenario.node[1].nic.mac1609_4 SentAcknowledgements_CCH 0
scalar SlicingScenario.node[1].nic.mac1609_4 SNIRLostPackets_CCH 0
scalar SlicingScenario.node[1].nic.mac1609_4 RXTXLostPackets_CCH 0
scalar SlicingScenario.node[1].nic.mac1609_4 TotalLostPackets_CCH 0
scalar SlicingScenario.node[1].nic.mac1609_4 DroppedPacketsInMac_CCH 0
scalar SlicingScenario.node[1].nic.mac1609_4 TooLittleTime_CCH 0
scalar SlicingScenario.node[1].nic.mac1609_4 TimesIntoBackoff_CCH 0
scalar SlicingScenario.node[1].nic.mac1609_4 SlotsBackoff_CCH 0
scalar SlicingScenario.node[1].nic.mac1609_4 NumInternalContention_CCH 0
scalar SlicingScenario.node[1].nic.mac1609_4 RemainingPacketsInEDCA_CCH 0
scalar SlicingScenario.node[1].nic.mac1609_4 totalBusyTime_CCH 0
scalar SlicingScenario.node[1].nic.mac1609_4 ReceivedUnicastPackets_SCH 0
scalar SlicingScenario.node[1].nic.mac1609_4 ReceivedBroadcasts_SCH 1962
scalar SlicingScenario.node[1].nic.mac1609_4 SentPackets_SCH 0
scalar SlicingScenario.node[1].nic.mac1609_4 SentAcknowledgements_SCH 0
scalar SlicingScenario.node[1].nic.mac1609_4 SNIRLostPackets_SCH 0
scalar SlicingScenario.node[1].nic.mac1609_4 RXTXLostPackets_SCH 0
scalar SlicingScenario.node[1].nic.mac1609_4 TotalLostPackets_SCH 0
scalar SlicingScenario.node[1].nic.mac1609_4 DroppedPacketsInMac_SCH 0
scalar SlicingScenario.node[1].nic.mac1609_4 TooLittleTime_SCH 0
scalar SlicingScenario.node[1].nic.mac1609_4 TimesIntoBackoff_SCH 0
scalar SlicingScenario.node[1].nic.mac1609_4 SlotsBackoff_SCH 0
scalar SlicingScenario.node[1].nic.mac1609_4 NumInternalContention_SCH 0
scalar SlicingScenario.node[1].nic.mac1609_4 RemainingPacketsInEDCA_SCH 0
scalar SlicingScenario.node[1].nic.mac1609_4 totalBusyTime_SCH 4.049568
scalar SlicingScenario.node[1].veinsmobility startTime 2
scalar SlicingScenario.node[1].veinsmobility totalTime 92
scalar SlicingScenario.node[1].veinsmobility stopTime 95
scalar SlicingScenario.node[1].veinsmobility minSpeed 7.8915399045665
scalar SlicingScenario.node[1].veinsmobility maxSpeed 11.107507508262
scalar SlicingScenario.node[1].veinsmobility totalDistance 983.84418127979
scalar SlicingScenario.node[1].veinsmobility totalCO2Emission 166.84115868379
scalar SlicingScenario.node[3].appl txPackets_31 0
scalar SlicingScenario.node[3].appl rxPackets_31 0
scalar SlicingScenario.node[3].appl rxNeighborPackets_31 0
scalar SlicingScenario.node[3].appl meanDelay_31 0
scalar SlicingScenario.node[3].appl meanJitter_31 0
scalar SlicingScenario.node[3].appl meanRxPacketSize_31 0
scalar SlicingScenario.node[3].appl meanTxPacketSize_31 0
scalar SlicingScenario.node[3].appl meanRxThroughput_31 0
scalar SlicingScenario.node[3].appl meanTxThroughput_31 0
scalar SlicingScenario.node[3].appl rxTimeOfService_31 0
scalar SlicingScenario.node[3].appl txTimeOfService_31 0
scalar SlicingScenario.node[3].appl txPackets_41_31 0
scalar SlicingScenario.node[3].appl rxPackets_41_31 83
scalar SlicingScenario.node[3].appl rxNeighborPackets_41_31 979
scalar SlicingScenario.node[3].appl meanDelay_41_31 0.002071782705
scalar SlicingScenario.node[3].appl meanJitter_41_31 2.551392e-05
scalar SlicingScenario.node[3].appl meanRxPacketSize_41_31 1510
scalar SlicingScenario.node[3].appl meanTxPacketSize_41_31 0
scalar SlicingScenario.node[3].appl meanRxThroughput_41_31 12227.317820307
scalar SlicingScenario.node[3].appl meanTxThroughput_41_31 0
scalar SlicingScenario.node[3].appl rxTimeOfService_41_31 81.999994989484
scalar SlicingScenario.node[3].appl txTimeOfService_41_31 0
scalar SlicingScenario.node[3].nic.phy80211p busyTime 0.044959304347825
scalar SlicingScenario.node[3].nic.phy80211p ncollisions 0
scalar SlicingScenario.node[3].nic.phy80211p UnderSensitivityPackets 241
scalar SlicingScenario.node[3].nic.mac1609_4 ReceivedUnicastPackets_CCH 0
scalar SlicingScenario.node[3].nic.mac1609_4 ReceivedBroadcasts_CCH 0
scalar SlicingScenario.node[3].nic.mac1609_4 SentPackets_CCH 0
scalar SlicingScenario.node[3].nic.mac1609_4 SentAcknowledgements_CCH 0
scalar SlicingScenario.node[3].nic.mac1609_4 SNIRLostPackets_CCH 0
scalar SlicingScenario.node[3].nic.mac1609_4 RXTXLostPackets_CCH 0
scalar SlicingScenario.node[3].nic.mac1609_4 TotalLostPackets_CCH 0
scalar SlicingScenario.node[3].nic.mac1609_4 DroppedPacketsInMac_CCH 0
scalar SlicingScenario.node[3].nic.mac1609_4 TooLittleTime_CCH 0
scalar SlicingScenario.node[3].nic.mac1609_4 TimesIntoBackoff_CCH 0
scalar SlicingScenario.node[3].nic.mac1609_4 SlotsBackoff_CCH 0
scalar SlicingScenario.node[3].nic.mac1609_4 NumInternalContention_CCH 0
scalar SlicingScenario.node[3].nic.mac1609_4 RemainingPacketsInEDCA_CCH 0
scalar SlicingScenario.node[3].nic.mac1609_4 totalBusyTime_CCH 0
scalar SlicingScenario.node[3].nic.mac1609_4 ReceivedUnicastPackets_SCH 0
scalar SlicingScenario.node[3].nic.mac1609_4 ReceivedBroadcasts_SCH 2004
scalar SlicingScenario.node[3].nic.mac1609_4 SentPackets_SCH 0
scalar SlicingScenario.node[3].nic.mac1609_4 SentAcknowledgements_SCH 0
scalar SlicingScenario.node[3].nic.mac1609_4 SNIRLostPackets_SCH 0
scalar SlicingScenario.node[3].nic.mac1609_4 RXTXLostPackets_SCH 0
scalar SlicingScenario.node[3].nic.mac1609_4 TotalLostPackets_SCH 0
scalar SlicingScenario.node[3].nic.mac1609_4 DroppedPacketsInMac_SCH 0
scalar SlicingScenario.node[3].nic.mac1609_4 TooLittleTime_SCH 0
scalar SlicingScenario.node[3].nic.mac1609_4 TimesIntoBackoff_SCH 0
scalar SlicingScenario.node[3].nic.mac1609_4 SlotsBackoff_SCH 0
scalar SlicingScenario.node[3].nic.mac1609_4 NumInternalContention_SCH 0
scalar SlicingScenario.node[3].nic.mac1609_4 RemainingPacketsInEDCA_SCH 0
scalar SlicingScenario.node[3].nic.mac1609_4 totalBusyTime_SCH 4.136256
scalar SlicingScenario.node[3].veinsmobility startTime 4
scalar SlicingScenario.node[3].veinsmobility totalTime 91
scalar SlicingScenario.node[3].veinsmobility stopTime 96
scalar SlicingScenario.node[3].veinsmobility minSpeed 10.611636685105
scalar SlicingScenario.node[3].veinsmobility maxSpeed 11.10476404069
scalar SlicingScenario.node[3].veinsmobility totalDistance 981.63778498014
scalar SlicingScenario.node[3].veinsmobility totalCO2Emission 159.24842024326
scalar SlicingScenario.node[4].appl txPackets_37 0
scalar SlicingScenario.node[4].appl rxPackets_37 0
scalar SlicingScenario.node[4].appl rxNeighborPackets_37 0
scalar SlicingScenario.node[4].appl meanDelay_37 0
scalar SlicingScenario.node[4].appl meanJitter_37 0
scalar SlicingScenario.node[4].appl meanRxPacketSize_37 0
scalar SlicingScenario.node[4].appl meanTxPacketSize_37 0
scalar SlicingScenario.node[4].appl meanRxThroughput_37 0
scalar SlicingScenario.node[4].appl meanTxThroughput_37 0
scalar SlicingScenario.node[4].appl rxTimeOfService_37 0
scalar SlicingScenario.node[4].appl txTimeOfService_37 0
scalar SlicingScenario.node[4].appl txPackets_40_37 0
scalar SlicingScenario.node[4].appl rxPackets_40_37 82
scalar SlicingScenario.node[4].appl rxNeighborPackets_40_37 877
scalar SlicingScenario.node[4].appl meanDelay_40_37 0.002076907827
scalar SlicingScenario.node[4].appl meanJitter_40_37 2.5816399e-05
scalar SlicingScenario.node[4].appl meanRxPacketSize_40_37 1510
scalar SlicingScenario.node[4].appl meanTxPacketSize_40_37 0
scalar SlicingScenario.node[4].appl meanRxThroughput_40_37 12229.137157822
scalar SlicingScenario.node[4].appl meanTxThroughput_40_37 0
scalar SlicingScenario.node[4].appl rxTimeOfService_40_37 80.999991022786
scalar SlicingScenario.node[4].appl txTimeOfService_40_37 0
scalar SlicingScenario.node[4].nic.phy80211p busyTime 0.045879130434781
scalar SlicingScenario.node[4].nic.phy80211p ncollisions 0
scalar SlicingScenario.node[4].nic.phy80211p UnderSensitivityPackets 246
scalar SlicingScenario.node[4].nic.mac1609_4 ReceivedUnicastPackets_CCH 0
scalar SlicingScenario.node[4].nic.mac1609_4 ReceivedBroadcasts_CCH 0
scalar SlicingScenario.node[4].nic.mac1609_4 SentPackets_CCH 0
scalar SlicingScenario.node[4].nic.mac1609_4 SentAcknowledgements_CCH 0
scalar SlicingScenario.node[4].nic.mac1609_4 SNIRLostPackets_CCH 0
scalar SlicingScenario.node[4].nic.mac1609_4 RXTXLostPackets_CCH 0
scalar SlicingScenario.node[4].nic.mac1609_4 TotalLostPackets_CCH 0
scalar SlicingScenario.node[4].nic.mac1609_4 DroppedPacketsInMac_CCH 0
scalar SlicingScenario.node[4].nic.mac1609_4 TooLittleTime_CCH 0
scalar SlicingScenario.node[4].nic.mac1609_4 TimesIntoBackoff_CCH 0
scalar SlicingScenario.node[4].nic.mac1609_4 SlotsBackoff_CCH 0
scalar SlicingScenario.node[4].nic.mac1609_4 NumInternalContention_CCH 0
scalar SlicingScenario.node[4].nic.mac1609_4 RemainingPacketsInEDCA_CCH 0
scalar SlicingScenario.node[4].nic.mac1609_4 totalBusyTime_CCH 0
scalar SlicingScenario.node[4].nic.mac1609_4 ReceivedUnicastPackets_SCH 0
scalar SlicingScenario.node[4].nic.mac1609_4 ReceivedBroadcasts_SCH 2045
scalar SlicingScenario.node[4].nic.mac1609_4 SentPackets_SCH 0
scalar SlicingScenario.node[4].nic.mac1609_4 SentAcknowledgements_SCH 0
scalar SlicingScenario.node[4].nic.mac1609_4 SNIRLostPackets_SCH 0
scalar SlicingScenario.node[4].nic.mac1609_4 RXTXLostPackets_SCH 0
scalar SlicingScenario.node[4].nic.mac1609_4 TotalLostPackets_SCH 0
scalar SlicingScenario.node[4].nic.mac1609_4 DroppedPacketsInMac_SCH 0
scalar SlicingScenario.node[4].nic.mac1609_4 TooLittleTime_SCH 0
scalar SlicingScenario.node[4].nic.mac1609_4 TimesIntoBackoff_SCH 0
scalar SlicingScenario.node[4].nic.mac1609_4 SlotsBackoff_SCH 0
scalar SlicingScenario.node[4].nic.mac1609_4 NumInternalContention_SCH 0
scalar SlicingScenario.node[4].nic.mac1609_4 RemainingPacketsInEDCA_SCH 0
scalar SlicingScenario.node[4].nic.mac1609_4 totalBusyTime_SCH 4.22088
scalar SlicingScenario.node[4].veinsmobility startTime 5
scalar SlicingScenario.node[4].veinsmobility totalTime 91
scalar SlicingScenario.node[4].veinsmobility stopTime 97
scalar SlicingScenario.node[4].veinsmobility minSpeed 10.616874394254
scalar SlicingScenario.node[4].veinsmobility maxSpeed 11.09911226436
scalar SlicingScenario.node[4].veinsmobility totalDistance 979.97591484882
scalar SlicingScenario.node[4].veinsmobility totalCO2Emission 159.38485982302
scalar SlicingScenario.node[5].appl txPackets_43 0
scalar SlicingScenario.node[5].appl rxPackets_43 0
scalar SlicingScenario.node[5].appl rxNeighborPackets_43 0
scalar SlicingScenario.node[5].appl meanDelay_43 0
scalar SlicingScenario.node[5].appl meanJitter_43 0
scalar SlicingScenario.node[5].appl meanRxPacketSize_43 0
scalar SlicingScenario.node[5].appl meanTxPacketSize_43 0
scalar SlicingScenario.node[5].appl meanRxThroughput_43 0
scalar SlicingScenario.node[5].appl meanTxThroughput_43 0
scalar SlicingScenario.node[5].appl rxTimeOfService_43 0
scalar SlicingScenario.node[5].appl txTimeOfService_43 0
scalar SlicingScenario.node[5].appl txPackets_40_43 0
scalar SlicingScenario.node[5].appl rxPackets_40_43 82
scalar SlicingScenario.node[5].appl rxNeighborPackets_40_43 910
scalar SlicingScenario.node[5].appl meanDelay_40_43 0.002070055335
scalar SlicingScenario.node[5].appl meanJitter_40_43 2.5638288e-05
scalar SlicingScenario.node[5].appl meanRxPacketSize_40_43 1510
scalar SlicingScenario.node[5].appl meanTxPacketSize_40_43 0
scalar SlicingScenario.node[5].appl meanRxThroughput_40_43 12229.135192421
scalar SlicingScenario.node[5].appl meanTxThroughput_40_43 0
scalar SlicingScenario.node[5].appl rxTimeOfService_40_43 81.000004040671
scalar SlicingScenario.node[5].appl txTimeOfService_40_43 0
scalar SlicingScenario.node[5].nic.phy80211p busyTime 0.04722787096774
scalar SlicingScenario.node[5].nic.phy80211p ncollisions 0
scalar SlicingScenario.node[5].nic.phy80211p UnderSensitivityPackets 257
scalar SlicingScenario.node[5].nic.mac1609_4 ReceivedUnicastPackets_CCH 0
scalar SlicingScenario.node[5].nic.mac1609_4 ReceivedBroadcasts_CCH 0
scalar SlicingScenario.node[5].nic.mac1609_4 SentPackets_CCH 0
scalar SlicingScenario.node[5].nic.mac1609_4 SentAcknowledgements_CCH 0
scalar SlicingScenario.node[5].nic.mac1609_4 SNIRLostPackets_CCH 0
scalar SlicingScenario.node[5].nic.mac1609_4 RXTXLostPackets_CCH 0
scalar SlicingScenario.node[5].nic.mac1609_4 TotalLostPackets_CCH 0
scalar SlicingScenario.node[5].nic.mac1609_4 DroppedPacketsInMac_CCH 0
scalar SlicingScenario.node[5].nic.mac1609_4 TooLittleTime_CCH 0
scalar SlicingScenario.node[5].nic.mac1609_4 TimesIntoBackoff_CCH 0
scalar SlicingScenario.node[5].nic.mac1609_4 SlotsBackoff_CCH 0
scalar SlicingScenario.node[5].nic.mac1609_4 NumInternalContention_CCH 0
scalar SlicingScenario.node[5].nic.mac1609_4 RemainingPacketsInEDCA_CCH 0
scalar SlicingScenario.node[5].nic.mac1609_4 totalBusyTime_CCH 0
scalar SlicingScenario.node[5].nic.mac1609_4 ReceivedUnicastPackets_SCH 0
scalar SlicingScenario.node[5].nic.mac1609_4 ReceivedBroadcasts_SCH 2128
scalar SlicingScenario.node[5].nic.mac1609_4 SentPackets_SCH 0
scalar SlicingScenario.node[5].nic.mac1609_4 SentAcknowledgements_SCH 0
scalar SlicingScenario.node[5].nic.mac1609_4 SNIRLostPackets_SCH 0
scalar SlicingScenario.node[5].nic.mac1609_4 RXTXLostPackets_SCH 0
scalar SlicingScenario.node[5].nic.mac1609_4 TotalLostPackets_SCH 0
scalar SlicingScenario.node[5].nic.mac1609_4 DroppedPacketsInMac_SCH 0
scalar SlicingScenario.node[5].nic.mac1609_4 TooLittleTime_SCH 0
scalar SlicingScenario.node[5].nic.mac1609_4 TimesIntoBackoff_SCH 0
scalar SlicingScenario.node[5].nic.mac1609_4 SlotsBackoff_SCH 0
scalar SlicingScenario.node[5].nic.mac1609_4 NumInternalContention_SCH 0
scalar SlicingScenario.node[5].nic.mac1609_4 RemainingPacketsInEDCA_SCH 0
scalar SlicingScenario.node[5].nic.mac1609_4 totalBusyTime_SCH 4.392192
scalar SlicingScenario.node[5].veinsmobility startTime 6
scalar SlicingScenario.node[5].veinsmobility totalTime 92
scalar SlicingScenario.node[5].veinsmobility stopTime 99
scalar SlicingScenario.node[5].veinsmobility minSpeed 7.8746452024071
scalar SlicingScenario.node[5].veinsmobility maxSpeed 11.096011229223
scalar SlicingScenario.node[5].veinsmobility totalDistance 982.02076878437
scalar SlicingScenario.node[5].veinsmobility totalCO2Emission 166.31353684671
scalar SlicingScenario.node[6].appl txPackets_49 0
scalar SlicingScenario.node[6].appl rxPackets_49 0
scalar SlicingScenario.node[6].appl rxNeighborPackets_49 0
scalar SlicingScenario.node[6].appl meanDelay_49 0
scalar SlicingScenario.node[6].appl meanJitter_49 0
scalar SlicingScenario.node[6].appl meanRxPacketSize_49 0
scalar SlicingScenario.node[6].appl meanTxPacketSize_49 0
scalar SlicingScenario.node[6].appl meanRxThroughput_49 0
scalar SlicingScenario.node[6].appl meanTxThroughput_49 0
scalar SlicingScenario.node[6].appl rxTimeOfService_49 0
scalar SlicingScenario.node[6].appl txTimeOfService_49 0
scalar SlicingScenario.node[6].appl txPackets_40_49 0
scalar SlicingScenario.node[6].appl rxPackets_40_49 80
scalar SlicingScenario.node[6].appl rxNeighborPackets_40_49 912
scalar SlicingScenario.node[6].appl meanDelay_40_49 0.002071559192
scalar SlicingScenario.node[6].appl meanJitter_40_49 2.6307465e-05
scalar SlicingScenario.node[6].appl meanRxPacketSize_40_49 1510
scalar SlicingScenario.node[6].appl meanTxPacketSize_40_49 0
scalar SlicingScenario.node[6].appl meanRxThroughput_40_49 12232.910759723
scalar SlicingScenario.node[6].appl meanTxThroughput_40_49 0
scalar SlicingScenario.node[6].appl rxTimeOfService_40_49 79.000004085855
scalar SlicingScenario.node[6].appl txTimeOfService_40_49 0
scalar SlicingScenario.node[6].nic.phy80211p busyTime 0.047741217391303
scalar SlicingScenario.node[6].nic.phy80211p ncollisions 0
scalar SlicingScenario.node[6].nic.phy80211p UnderSensitivityPackets 254
scalar SlicingScenario.node[6].nic.mac1609_4 ReceivedUnicastPackets_CCH 0
scalar SlicingScenario.node[6].nic.mac1609_4 ReceivedBroadcasts_CCH 0
scalar SlicingScenario.node[6].nic.mac1609_4 SentPackets_CCH 0
scalar SlicingScenario.node[6].nic.mac1609_4 SentAcknowledgements_CCH 0
scalar SlicingScenario.node[6].nic.mac1609_4 SNIRLostPackets_CCH 0
scalar SlicingScenario.node[6].nic.mac1609_4 RXTXLostPackets_CCH 0
scalar SlicingScenario.node[6].nic.mac1609_4 TotalLostPackets_CCH 0
scalar SlicingScenario.node[6].nic.mac1609_4 DroppedPacketsInMac_CCH 0
scalar SlicingScenario.node[6].nic.mac1609_4 TooLittleTime_CCH 0
scalar SlicingScenario.node[6].nic.mac1609_4 TimesIntoBackoff_CCH 0
scalar SlicingScenario.node[6].nic.mac1609_4 SlotsBackoff_CCH 0
scalar SlicingScenario.node[6].nic.mac1609_4 NumInternalContention_CCH 0
scalar SlicingScenario.node[6].nic.mac1609_4 RemainingPacketsInEDCA_CCH 0
scalar SlicingScenario.node[6].nic.mac1609_4 totalBusyTime_CCH 0
scalar SlicingScenario.node[6].nic.mac1609_4 ReceivedUnicastPackets_SCH 0
scalar SlicingScenario.node[6].nic.mac1609_4 ReceivedBroadcasts_SCH 2128
scalar SlicingScenario.node[6].nic.mac1609_4 SentPackets_SCH 0
scalar SlicingScenario.node[6].nic.mac1609_4 SentAcknowledgements_SCH 0
scalar SlicingScenario.node[6].nic.mac1609_4 SNIRLostPackets_SCH 0
scalar SlicingScenario.node[6].nic.mac1609_4 RXTXLostPackets_SCH 0
scalar SlicingScenario.node[6].nic.mac1609_4 TotalLostPackets_SCH 0
scalar SlicingScenario.node[6].nic.mac1609_4 DroppedPacketsInMac_SCH 0
scalar SlicingScenario.node[6].nic.mac1609_4 TooLittleTime_SCH 0
scalar SlicingScenario.node[6].nic.mac1609_4 TimesIntoBackoff_SCH 0
scalar SlicingScenario.node[6].nic.mac1609_4 SlotsBackoff_SCH 0
scalar SlicingScenario.node[6].nic.mac1609_4 NumInternalContention_SCH 0
scalar SlicingScenario.node[6].nic.mac1609_4 RemainingPacketsInEDCA_SCH 0
scalar SlicingScenario.node[6].nic.mac1609_4 totalBusyTime_SCH 4.392192
scalar SlicingScenario.node[6].veinsmobility startTime 7
scalar SlicingScenario.node[6].veinsmobility totalTime 91
scalar SlicingScenario.node[6].veinsmobility stopTime 99
scalar SlicingScenario.node[6].veinsmobility minSpeed 10.621848166818
scalar SlicingScenario.node[6].veinsmobility maxSpeed 11.108649507994
scalar SlicingScenario.node[6].veinsmobility totalDistance 979.05863466746
scalar SlicingScenario.node[6].veinsmobility totalCO2Emission 158.87053229453
scalar SlicingScenario.node[7].appl txPackets_55 0
scalar SlicingScenario.node[7].appl rxPackets_55 0
scalar SlicingScenario.node[7].appl rxNeighborPackets_55 0
scalar SlicingScenario.node[7].appl meanDelay_55 0
scalar SlicingScenario.node[7].appl meanJitter_55 0
scalar SlicingScenario.node[7].appl meanRxPacketSize_55 0
scalar SlicingScenario.node[7].appl meanTxPacketSize_55 0
scalar SlicingScenario.node[7].appl meanRxThroughput_55 0
scalar SlicingScenario.node[7].appl meanTxThroughput_55 0
scalar SlicingScenario.node[7].appl rxTimeOfService_55 0
scalar SlicingScenario.node[7].appl txTimeOfService_55 0
scalar SlicingScenario.node[7].appl txPackets_41_55 0
scalar SlicingScenario.node[7].appl rxPackets_41_55 79
scalar SlicingScenario.node[7].appl rxNeighborPackets_41_55 1082
scalar SlicingScenario.node[7].appl meanDelay_41_55 0.002075122254
scalar SlicingScenario.node[7].appl meanJitter_41_55 2.6667405e-05
scalar SlicingScenario.node[7].appl meanRxPacketSize_41_55 1510
scalar SlicingScenario.node[7].appl meanTxPacketSize_41_55 0
scalar SlicingScenario.node[7].appl meanRxThroughput_41_55 12234.871148334
scalar SlicingScenario.node[7].appl meanTxThroughput_41_55 0
scalar SlicingScenario.node[7].appl rxTimeOfService_41_55 78.000004121821
scalar SlicingScenario.node[7].appl txTimeOfService_41_55 0
scalar SlicingScenario.node[7].nic.phy80211p busyTime 0.048683478260868
scalar SlicingScenario.node[7].nic.phy80211p ncollisions 0
scalar SlicingScenario.node[7].nic.phy80211p UnderSensitivityPackets 258
scalar SlicingScenario.node[7].nic.mac1609_4 ReceivedUnicastPackets_CCH 0
scalar SlicingScenario.node[7].nic.mac1609_4 ReceivedBroadcasts_CCH 0
scalar SlicingScenario.node[7].nic.mac1609_4 SentPackets_CCH 0
scalar SlicingScenario.node[7].nic.mac1609_4 SentAcknowledgements_CCH 0
scalar SlicingScenario.node[7].nic.mac1609_4 SNIRLostPackets_CCH 0
scalar SlicingScenario.node[7].nic.mac1609_4 RXTXLostPackets_CCH 0
scalar SlicingScenario.node[7].nic.mac1609_4 TotalLostPackets_CCH 0
scalar SlicingScenario.node[7].nic.mac1609_4 DroppedPacketsInMac_CCH 0
scalar SlicingScenario.node[7].nic.mac1609_4 TooLittleTime_CCH 0
scalar SlicingScenario.node[7].nic.mac1609_4 TimesIntoBackoff_CCH 0
scalar SlicingScenario.node[7].nic.mac1609_4 SlotsBackoff_CCH 0
scalar SlicingScenario.node[7].nic.mac1609_4 NumInternalContention_CCH 0
scalar SlicingScenario.node[7].nic.mac1609_4 RemainingPacketsInEDCA_CCH 0
scalar SlicingScenario.node[7].nic.mac1609_4 totalBusyTime_CCH 0
scalar SlicingScenario.node[7].nic.mac1609_4 ReceivedUnicastPackets_SCH 0
scalar SlicingScenario.node[7].nic.mac1609_4 ReceivedBroadcasts_SCH 2170
scalar SlicingScenario.node[7].nic.mac1609_4 SentPackets_SCH 0
scalar SlicingScenario.node[7].nic.mac1609_4 SentAcknowledgements_SCH 0
scalar SlicingScenario.node[7].nic.mac1609_4 SNIRLostPackets_SCH 0
scalar SlicingScenario.node[7].nic.mac1609_4 RXTXLostPackets_SCH 0
scalar SlicingScenario.node[7].nic.mac1609_4 TotalLostPackets_SCH 0
scalar SlicingScenario.node[7].nic.mac1609_4 DroppedPacketsInMac_SCH 0
scalar SlicingScenario.node[7].nic.mac1609_4 TooLittleTime_SCH 0
scalar SlicingScenario.node[7].nic.mac1609_4 TimesIntoBackoff_SCH 0
scalar SlicingScenario.node[7].nic.mac1609_4 SlotsBackoff_SCH 0
scalar SlicingScenario.node[7].nic.mac1609_4 NumInternalContention_SCH 0
scalar SlicingScenario.node[7].nic.mac1609_4 RemainingPacketsInEDCA_SCH 0
scalar SlicingScenario.node[7].nic.mac1609_4 totalBusyTime_SCH 4.47888
scalar SlicingScenario.node[7].veinsmobility startTime 8
scalar SlicingScenario.node[7].veinsmobility totalTime 91
scalar SlicingScenario.node[7].veinsmobility stopTime 100
scalar SlicingScenario.node[7].veinsmobility minSpeed 10.610351008028
scalar SlicingScenario.node[7].veinsmobility maxSpeed 11.10615326256
scalar SlicingScenario.node[7].veinsmobility totalDistance 978.44350693618
scalar SlicingScenario.node[7].veinsmobility totalCO2Emission 159.34453656577
scalar SlicingScenario.node[8].appl txPackets_61 0
scalar SlicingScenario.node[8].appl rxPackets_61 0
scalar SlicingScenario.node[8].appl rxNeighborPackets_61 0
scalar SlicingScenario.node[8].appl meanDelay_61 0
scalar SlicingScenario.node[8].appl meanJitter_61 0
scalar SlicingScenario.node[8].appl meanRxPacketSize_61 0
scalar SlicingScenario.node[8].appl meanTxPacketSize_61 0
scalar SlicingScenario.node[8].appl meanRxThroughput_61 0
scalar SlicingScenario.node[8].appl meanTxThroughput_61 0
scalar SlicingScenario.node[8].appl rxTimeOfService_61 0
scalar SlicingScenario.node[8].appl txTimeOfService_61 0
scalar SlicingScenario.node[8].appl txPackets_41_61 0
scalar SlicingScenario.node[8].appl rxPackets_41_61 79
scalar SlicingScenario.node[8].appl rxNeighborPackets_41_61 1133
scalar SlicingScenario.node[8].appl meanDelay_41_61 0.00206870145
scalar SlicingScenario.node[8].appl meanJitter_41_61 2.6564515e-05
scalar SlicingScenario.node[8].appl meanRxPacketSize_41_61 1510
scalar SlicingScenario.node[8].appl meanTxPacketSize_41_61 0
scalar SlicingScenario.node[8].appl meanRxThroughput_41_61 12234.87177173
scalar SlicingScenario.node[8].appl meanTxThroughput_41_61 0
scalar SlicingScenario.node[8].appl rxTimeOfService_41_61 78.000000147537
scalar SlicingScenario.node[8].appl txTimeOfService_41_61 0
scalar SlicingScenario.node[8].nic.phy80211p busyTime 0.050002064516127
scalar SlicingScenario.node[8].nic.phy80211p ncollisions 0
scalar SlicingScenario.node[8].nic.phy80211p UnderSensitivityPackets 271
scalar SlicingScenario.node[8].nic.mac1609_4 ReceivedUnicastPackets_CCH 0
scalar SlicingScenario.node[8].nic.mac1609_4 ReceivedBroadcasts_CCH 0
scalar SlicingScenario.node[8].nic.mac1609_4 SentPackets_CCH 0
scalar SlicingScenario.node[8].nic.mac1609_4 SentAcknowledgements_CCH 0
scalar SlicingScenario.node[8].nic.mac1609_4 SNIRLostPackets_CCH 0
scalar SlicingScenario.node[8].nic.mac1609_4 RXTXLostPackets_CCH 0
scalar SlicingScenario.node[8].nic.mac1609_4 TotalLostPackets_CCH 0
scalar SlicingScenario.node[8].nic.mac1609_4 DroppedPacketsInMac_CCH 0
scalar SlicingScenario.node[8].nic.mac1609_4 TooLittleTime_CCH 0
scalar SlicingScenario.node[8].nic.mac1609_4 TimesIntoBackoff_CCH 0
scalar SlicingScenario.node[8].nic.mac1609_4 SlotsBackoff_CCH 0
scalar SlicingScenario.node[8].nic.mac1609_4 NumInternalContention_CCH 0
scalar SlicingScenario.node[8].nic.mac1609_4 RemainingPacketsInEDCA_CCH 0
scalar SlicingScenario.node[8].nic.mac1609_4 totalBusyTime_CCH 0
scalar SlicingScenario.node[8].nic.mac1609_4 ReceivedUnicastPackets_SCH 0
scalar SlicingScenario.node[8].nic.mac1609_4 ReceivedBroadcasts_SCH 2253
scalar SlicingScenario.node[8].nic.mac1609_4 SentPackets_SCH 0
scalar SlicingScenario.node[8].nic.mac1609_4 SentAcknowledgements_SCH 0
scalar SlicingScenario.node[8].nic.mac1609_4 SNIRLostPackets_SCH 0
scalar SlicingScenario.node[8].nic.mac1609_4 RXTXLostPackets_SCH 0
scalar SlicingScenario.node[8].nic.mac1609_4 TotalLostPackets_SCH 0
scalar SlicingScenario.node[8].nic.mac1609_4 DroppedPacketsInMac_SCH 0
scalar SlicingScenario.node[8].nic.mac1609_4 TooLittleTime_SCH 0
scalar SlicingScenario.node[8].nic.mac1609_4 TimesIntoBackoff_SCH 0
scalar SlicingScenario.node[8].nic.mac1609_4 SlotsBackoff_SCH 0
scalar SlicingScenario.node[8].nic.mac1609_4 NumInternalContention_SCH 0
scalar SlicingScenario.node[8].nic.mac1609_4 RemainingPacketsInEDCA_SCH 0
scalar SlicingScenario.node[8].nic.mac1609_4 totalBusyTime_SCH 4.650192
scalar SlicingScenario.node[8].veinsmobility startTime 9
scalar SlicingScenario.node[8].veinsmobility totalTime 92
scalar SlicingScenario.node[8].veinsmobility stopTime 102
scalar SlicingScenario.node[8].veinsmobility minSpeed 8.1550845148023
scalar SlicingScenario.node[8].veinsmobility maxSpeed 11.104242632645
scalar SlicingScenario.node[8].veinsmobility totalDistance 982.98662402426
scalar SlicingScenario.node[8].veinsmobility totalCO2Emission 167.17041122456
scalar SlicingScenario.node[10].appl txPackets_73 0
scalar SlicingScenario.node[10].appl rxPackets_73 0
scalar SlicingScenario.node[10].appl rxNeighborPackets_73 0
scalar SlicingScenario.node[10].appl meanDelay_73 0
scalar SlicingScenario.node[10].appl meanJitter_73 0
scalar SlicingScenario.node[10].appl meanRxPacketSize_73 0
scalar SlicingScenario.node[10].appl meanTxPacketSize_73 0
scalar SlicingScenario.node[10].appl meanRxThroughput_73 0
scalar SlicingScenario.node[10].appl meanTxThroughput_73 0
scalar SlicingScenario.node[10].appl rxTimeOfService_73 0
scalar SlicingScenario.node[10].appl txTimeOfService_73 0
scalar SlicingScenario.node[10].appl txPackets_41_73 0
scalar SlicingScenario.node[10].appl rxPackets_41_73 75
scalar SlicingScenario.node[10].appl rxNeighborPackets_41_73 1189
scalar SlicingScenario.node[10].appl meanDelay_41_73 0.002071705312
scalar SlicingScenario.node[10].appl meanJitter_41_73 2.8279832e-05
scalar SlicingScenario.node[10].appl meanRxPacketSize_41_73 1510
scalar SlicingScenario.node[10].appl meanTxPacketSize_41_73 0
scalar SlicingScenario.node[10].appl meanRxThroughput_41_73 12243.244026338
scalar SlicingScenario.node[10].appl meanTxThroughput_41_73 0
scalar SlicingScenario.node[10].appl rxTimeOfService_41_73 73.999995266856
scalar SlicingScenario.node[10].appl txTimeOfService_41_73 0
scalar SlicingScenario.node[10].nic.phy80211p busyTime 0.052385217391302
scalar SlicingScenario.node[10].nic.phy80211p ncollisions 0
scalar SlicingScenario.node[10].nic.phy80211p UnderSensitivityPackets 277
scalar SlicingScenario.node[10].nic.mac1609_4 ReceivedUnicastPackets_CCH 0
scalar SlicingScenario.node[10].nic.mac1609_4 ReceivedBroadcasts_CCH 0
scalar SlicingScenario.node[10].nic.mac1609_4 SentPackets_CCH 0
scalar SlicingScenario.node[10].nic.mac1609_4 SentAcknowledgements_CCH 0
scalar SlicingScenario.node[10].nic.mac1609_4 SNIRLostPackets_CCH 0
scalar SlicingScenario.node[10].nic.mac1609_4 RXTXLostPackets_CCH 0
scalar SlicingScenario.node[10].nic.mac1609_4 TotalLostPackets_CCH 0
scalar SlicingScenario.node[10].nic.mac1609_4 DroppedPacketsInMac_CCH 0
scalar SlicingScenario.node[10].nic.mac1609_4 TooLittleTime_CCH 0
scalar SlicingScenario.node[10].nic.mac1609_4 TimesIntoBackoff_CCH 0
scalar SlicingScenario.node[10].nic.mac1609_4 SlotsBackoff_CCH 0
scalar SlicingScenario.node[10].nic.mac1609_4 NumInternalContention_CCH 0
scalar SlicingScenario.node[10].nic.mac1609_4 RemainingPacketsInEDCA_CCH 0
scalar SlicingScenario.node[10].nic.mac1609_4 totalBusyTime_CCH 0
scalar SlicingScenario.node[10].nic.mac1609_4 ReceivedUnicastPackets_SCH 0
scalar SlicingScenario.node[10].nic.mac1609_4 ReceivedBroadcasts_SCH 2335
scalar SlicingScenario.node[10].nic.mac1609_4 SentPackets_SCH 0
scalar SlicingScenario.node[10].nic.mac1609_4 SentAcknowledgements_SCH 0
scalar SlicingScenario.node[10].nic.mac1609_4 SNIRLostPackets_SCH 0
scalar SlicingScenario.node[10].nic.mac1609_4 RXTXLostPackets_SCH 0
scalar SlicingScenario.node[10].nic.mac1609_4 TotalLostPackets_SCH 0
scalar SlicingScenario.node[10].nic.mac1609_4 DroppedPacketsInMac_SCH 0
scalar SlicingScenario.node[10].nic.mac1609_4 TooLittleTime_SCH 0
scalar SlicingScenario.node[10].nic.mac1609_4 TimesIntoBackoff_SCH 0
scalar SlicingScenario.node[10].nic.mac1609_4 SlotsBackoff_SCH 0
scalar SlicingScenario.node[10].nic.mac1609_4 NumInternalContention_SCH 0
scalar SlicingScenario.node[10].nic.mac1609_4 RemainingPacketsInEDCA_SCH 0
scalar SlicingScenario.node[10].nic.mac1609_4 totalBusyTime_SCH 4.81944
scalar SlicingScenario.node[10].veinsmobility startTime 12
scalar SlicingScenario.node[10].veinsmobility totalTime 91
scalar SlicingScenario.node[10].veinsmobility stopTime 104
scalar SlicingScenario.node[10].veinsmobility minSpeed 10.627849723576
scalar SlicingScenario.node[10].veinsmobility maxSpeed 11.097330911099
scalar SlicingScenario.node[10].veinsmobility totalDistance 977.34088345279
scalar SlicingScenario.node[10].veinsmobility totalCO2Emission 159.29086126831
scalar SlicingScenario.node[9].appl txPackets_67 0
scalar SlicingScenario.node[9].appl rxPackets_67 0
scalar SlicingScenario.node[9].appl rxNeighborPackets_67 0
scalar SlicingScenario.node[9].appl meanDelay_67 0
scalar SlicingScenario.node[9].appl meanJitter_67 0
scalar SlicingScenario.node[9].appl meanRxPacketSize_67 0
scalar SlicingScenario.node[9].appl meanTxPacketSize_67 0
scalar SlicingScenario.node[9].appl meanRxThroughput_67 0
scalar SlicingScenario.node[9].appl meanTxThroughput_67 0
scalar SlicingScenario.node[9].appl rxTimeOfService_67 0
scalar SlicingScenario.node[9].appl txTimeOfService_67 0
scalar SlicingScenario.node[9].appl txPackets_41_67 0
scalar SlicingScenario.node[9].appl rxPackets_41_67 80
scalar SlicingScenario.node[9].appl rxNeighborPackets_41_67 1211
scalar SlicingScenario.node[9].appl meanDelay_41_67 0.003817753727
scalar SlicingScenario.node[9].appl meanJitter_41_67 8.3552653e-05
scalar SlicingScenario.node[9].appl meanRxPacketSize_41_67 1510
scalar SlicingScenario.node[9].appl meanTxPacketSize_41_67 0
scalar SlicingScenario.node[9].appl meanRxThroughput_41_67 12232.909355994
scalar SlicingScenario.node[9].appl meanTxThroughput_41_67 0
scalar SlicingScenario.node[9].appl rxTimeOfService_41_67 79.000013151123
scalar SlicingScenario.node[9].appl txTimeOfService_41_67 0
scalar SlicingScenario.node[9].nic.phy80211p busyTime 0.052346553191487
scalar SlicingScenario.node[9].nic.phy80211p ncollisions 0
scalar SlicingScenario.node[9].nic.phy80211p UnderSensitivityPackets 238
scalar SlicingScenario.node[9].nic.mac1609_4 ReceivedUnicastPackets_CCH 0
scalar SlicingScenario.node[9].nic.mac1609_4 ReceivedBroadcasts_CCH 0
scalar SlicingScenario.node[9].nic.mac1609_4 SentPackets_CCH 0
scalar SlicingScenario.node[9].nic.mac1609_4 SentAcknowledgements_CCH 0
scalar SlicingScenario.node[9].nic.mac1609_4 SNIRLostPackets_CCH 0
scalar SlicingScenario.node[9].nic.mac1609_4 RXTXLostPackets_CCH 0
scalar SlicingScenario.node[9].nic.mac1609_4 TotalLostPackets_CCH 0
scalar SlicingScenario.node[9].nic.mac1609_4 DroppedPacketsInMac_CCH 0
scalar SlicingScenario.node[9].nic.mac1609_4 TooLittleTime_CCH 0
scalar SlicingScenario.node[9].nic.mac1609_4 TimesIntoBackoff_CCH 0
scalar SlicingScenario.node[9].nic.mac1609_4 SlotsBackoff_CCH 0
scalar SlicingScenario.node[9].nic.mac1609_4 NumInternalContention_CCH 0
scalar SlicingScenario.node[9].nic.mac1609_4 RemainingPacketsInEDCA_CCH 0
scalar SlicingScenario.node[9].nic.mac1609_4 totalBusyTime_CCH 0
scalar SlicingScenario.node[9].nic.mac1609_4 ReceivedUnicastPackets_SCH 0
scalar SlicingScenario.node[9].nic.mac1609_4 ReceivedBroadcasts_SCH 2384
scalar SlicingScenario.node[9].nic.mac1609_4 SentPackets_SCH 0
scalar SlicingScenario.node[9].nic.mac1609_4 SentAcknowledgements_SCH 0
scalar SlicingScenario.node[9].nic.mac1609_4 SNIRLostPackets_SCH 0
scalar SlicingScenario.node[9].nic.mac1609_4 RXTXLostPackets_SCH 0
scalar SlicingScenario.node[9].nic.mac1609_4 TotalLostPackets_SCH 0
scalar SlicingScenario.node[9].nic.mac1609_4 DroppedPacketsInMac_SCH 0
scalar SlicingScenario.node[9].nic.mac1609_4 TooLittleTime_SCH 0
scalar SlicingScenario.node[9].nic.mac1609_4 TimesIntoBackoff_SCH 0
scalar SlicingScenario.node[9].nic.mac1609_4 SlotsBackoff_SCH 0
scalar SlicingScenario.node[9].nic.mac1609_4 NumInternalContention_SCH 0
scalar SlicingScenario.node[9].nic.mac1609_4 RemainingPacketsInEDCA_SCH 0
scalar SlicingScenario.node[9].nic.mac1609_4 totalBusyTime_SCH 4.920576
scalar SlicingScenario.node[9].veinsmobility startTime 10
scalar SlicingScenario.node[9].veinsmobility totalTime 93
scalar SlicingScenario.node[9].veinsmobility stopTime 104
scalar SlicingScenario.node[9].veinsmobility minSpeed 5.058677208038
scalar SlicingScenario.node[9].veinsmobility maxSpeed 11.108513728962
scalar SlicingScenario.node[9].veinsmobility totalDistance 976.65722035595
scalar SlicingScenario.node[9].veinsmobility totalCO2Emission 174.37531489032
scalar SlicingScenario.node[11].appl txPackets_79 0
scalar SlicingScenario.node[11].appl rxPackets_79 0
scalar SlicingScenario.node[11].appl rxNeighborPackets_79 0
scalar SlicingScenario.node[11].appl meanDelay_79 0
scalar SlicingScenario.node[11].appl meanJitter_79 0
scalar SlicingScenario.node[11].appl meanRxPacketSize_79 0
scalar SlicingScenario.node[11].appl meanTxPacketSize_79 0
scalar SlicingScenario.node[11].appl meanRxThroughput_79 0
scalar SlicingScenario.node[11].appl meanTxThroughput_79 0
scalar SlicingScenario.node[11].appl rxTimeOfService_79 0
scalar SlicingScenario.node[11].appl txTimeOfService_79 0
scalar SlicingScenario.node[11].appl txPackets_40_79 0
scalar SlicingScenario.node[11].appl rxPackets_40_79 74
scalar SlicingScenario.node[11].appl rxNeighborPackets_40_79 1013
scalar SlicingScenario.node[11].appl meanDelay_40_79 0.002071650858
scalar SlicingScenario.node[11].appl meanJitter_40_79 2.8620351e-05
scalar SlicingScenario.node[11].appl meanRxPacketSize_40_79 1510
scalar SlicingScenario.node[11].appl meanTxPacketSize_40_79 0
scalar SlicingScenario.node[11].appl meanRxThroughput_40_79 12245.480910811
scalar SlicingScenario.node[11].appl meanTxThroughput_40_79 0
scalar SlicingScenario.node[11].appl rxTimeOfService_40_79 72.999991303795
scalar SlicingScenario.node[11].appl txTimeOfService_40_79 0
scalar SlicingScenario.node[11].nic.phy80211p busyTime 0.053305043478259
scalar SlicingScenario.node[11].nic.phy80211p ncollisions 0
scalar SlicingScenario.node[11].nic.phy80211p UnderSensitivityPackets 282
scalar SlicingScenario.node[11].nic.mac1609_4 ReceivedUnicastPackets_CCH 0
scalar SlicingScenario.node[11].nic.mac1609_4 ReceivedBroadcasts_CCH 0
scalar SlicingScenario.node[11].nic.mac1609_4 SentPackets_CCH 0
scalar SlicingScenario.node[11].nic.mac1609_4 SentAcknowledgements_CCH 0
scalar SlicingScenario.node[11].nic.mac1609_4 SNIRLostPackets_CCH 0
scalar SlicingScenario.node[11].nic.mac1609_4 RXTXLostPackets_CCH 0
scalar SlicingScenario.node[11].nic.mac1609_4 TotalLostPackets_CCH 0
scalar SlicingScenario.node[11].nic.mac1609_4 DroppedPacketsInMac_CCH 0
scalar SlicingScenario.node[11].nic.mac1609_4 TooLittleTime_CCH 0
scalar SlicingScenario.node[11].nic.mac1609_4 TimesIntoBackoff_CCH 0
scalar SlicingScenario.node[11].nic.mac1609_4 SlotsBackoff_CCH 0
scalar SlicingScenario.node[11].nic.mac1609_4 NumInternalContention_CCH 0
scalar SlicingScenario.node[11].nic.mac1609_4 RemainingPacketsInEDCA_CCH 0
scalar SlicingScenario.node[11].nic.mac1609_4 totalBusyTime_CCH 0
scalar SlicingScenario.node[11].nic.mac1609_4 ReceivedUnicastPackets_SCH 0
scalar SlicingScenario.node[11].nic.mac1609_4 ReceivedBroadcasts_SCH 2376
scalar SlicingScenario.node[11].nic.mac1609_4 SentPackets_SCH 0
scalar SlicingScenario.node[11].nic.mac1609_4 SentAcknowledgements_SCH 0
scalar SlicingScenario.node[11].nic.mac1609_4 SNIRLostPackets_SCH 0
scalar SlicingScenario.node[11].nic.mac1609_4 RXTXLostPackets_SCH 0
scalar SlicingScenario.node[11].nic.mac1609_4 TotalLostPackets_SCH 0
scalar SlicingScenario.node[11].nic.mac1609_4 DroppedPacketsInMac_SCH 0
scalar SlicingScenario.node[11].nic.mac1609_4 TooLittleTime_SCH 0
scalar SlicingScenario.node[11].nic.mac1609_4 TimesIntoBackoff_SCH 0
scalar SlicingScenario.node[11].nic.mac1609_4 SlotsBackoff_SCH 0
scalar SlicingScenario.node[11].nic.mac1609_4 NumInternalContention_SCH 0
scalar SlicingScenario.node[11].nic.mac1609_4 RemainingPacketsInEDCA_SCH 0
scalar SlicingScenario.node[11].nic.mac1609_4 totalBusyTime_SCH 4.904064
scalar SlicingScenario.node[11].veinsmobility startTime 13
scalar SlicingScenario.node[11].veinsmobility totalTime 91
scalar SlicingScenario.node[11].veinsmobility stopTime 105
scalar SlicingScenario.node[11].veinsmobility minSpeed 10.610151482061
scalar SlicingScenario.node[11].veinsmobility maxSpeed 11.109465873465
scalar SlicingScenario.node[11].veinsmobility totalDistance 978.20316717061
scalar SlicingScenario.node[11].veinsmobility totalCO2Emission 158.87652658553
scalar SlicingScenario.node[12].appl txPackets_85 0
scalar SlicingScenario.node[12].appl rxPackets_85 0
scalar SlicingScenario.node[12].appl rxNeighborPackets_85 0
scalar SlicingScenario.node[12].appl meanDelay_85 0
scalar SlicingScenario.node[12].appl meanJitter_85 0
scalar SlicingScenario.node[12].appl meanRxPacketSize_85 0
scalar SlicingScenario.node[12].appl meanTxPacketSize_85 0
scalar SlicingScenario.node[12].appl meanRxThroughput_85 0
scalar SlicingScenario.node[12].appl meanTxThroughput_85 0
scalar SlicingScenario.node[12].appl rxTimeOfService_85 0
scalar SlicingScenario.node[12].appl txTimeOfService_85 0
scalar SlicingScenario.node[12].appl txPackets_40_85 0
scalar SlicingScenario.node[12].appl rxPackets_40_85 75
scalar SlicingScenario.node[12].appl rxNeighborPackets_40_85 1029
scalar SlicingScenario.node[12].appl meanDelay_40_85 0.002071301291
scalar SlicingScenario.node[12].appl meanJitter_40_85 2.8306993e-05
scalar SlicingScenario.node[12].appl meanRxPacketSize_40_85 1510
scalar SlicingScenario.node[12].appl meanTxPacketSize_40_85 0
scalar SlicingScenario.node[12].appl meanRxThroughput_40_85 12243.242700223
scalar SlicingScenario.node[12].appl meanTxThroughput_40_85 0
scalar SlicingScenario.node[12].appl rxTimeOfService_40_85 74.000003282094
scalar SlicingScenario.node[12].appl txTimeOfService_40_85 0
scalar SlicingScenario.node[12].nic.phy80211p busyTime 0.053663999999998
scalar SlicingScenario.node[12].nic.phy80211p ncollisions 0
scalar SlicingScenario.node[12].nic.phy80211p UnderSensitivityPackets 292
scalar SlicingScenario.node[12].nic.mac1609_4 ReceivedUnicastPackets_CCH 0
scalar SlicingScenario.node[12].nic.mac1609_4 ReceivedBroadcasts_CCH 0
scalar SlicingScenario.node[12].nic.mac1609_4 SentPackets_CCH 0
scalar SlicingScenario.node[12].nic.mac1609_4 SentAcknowledgements_CCH 0
scalar SlicingScenario.node[12].nic.mac1609_4 SNIRLostPackets_CCH 0
scalar SlicingScenario.node[12].nic.mac1609_4 RXTXLostPackets_CCH 0
scalar SlicingScenario.node[12].nic.mac1609_4 TotalLostPackets_CCH 0
scalar SlicingScenario.node[12].nic.mac1609_4 DroppedPacketsInMac_CCH 0
scalar SlicingScenario.node[12].nic.mac1609_4 TooLittleTime_CCH 0
scalar SlicingScenario.node[12].nic.mac1609_4 TimesIntoBackoff_CCH 0
scalar SlicingScenario.node[12].nic.mac1609_4 SlotsBackoff_CCH 0
scalar SlicingScenario.node[12].nic.mac1609_4 NumInternalContention_CCH 0
scalar SlicingScenario.node[12].nic.mac1609_4 RemainingPacketsInEDCA_CCH 0
scalar SlicingScenario.node[12].nic.mac1609_4 totalBusyTime_CCH 0
scalar SlicingScenario.node[12].nic.mac1609_4 ReceivedUnicastPackets_SCH 0
scalar SlicingScenario.node[12].nic.mac1609_4 ReceivedBroadcasts_SCH 2418
scalar SlicingScenario.node[12].nic.mac1609_4 SentPackets_SCH 0
scalar SlicingScenario.node[12].nic.mac1609_4 SentAcknowledgements_SCH 0
scalar SlicingScenario.node[12].nic.mac1609_4 SNIRLostPackets_SCH 0
scalar SlicingScenario.node[12].nic.mac1609_4 RXTXLostPackets_SCH 0
scalar SlicingScenario.node[12].nic.mac1609_4 TotalLostPackets_SCH 0
scalar SlicingScenario.node[12].nic.mac1609_4 DroppedPacketsInMac_SCH 0
scalar SlicingScenario.node[12].nic.mac1609_4 TooLittleTime_SCH 0
scalar SlicingScenario.node[12].nic.mac1609_4 TimesIntoBackoff_SCH 0
scalar SlicingScenario.node[12].nic.mac1609_4 SlotsBackoff_SCH 0
scalar SlicingScenario.node[12].nic.mac1609_4 NumInternalContention_SCH 0
scalar SlicingScenario.node[12].nic.mac1609_4 RemainingPacketsInEDCA_SCH 0
scalar SlicingScenario.node[12].nic.mac1609_4 totalBusyTime_SCH 4.990752
scalar SlicingScenario.node[12].veinsmobility startTime 13
scalar SlicingScenario.node[12].veinsmobility totalTime 92
scalar SlicingScenario.node[12].veinsmobility stopTime 106
scalar SlicingScenario.node[12].veinsmobility minSpeed 7.6984744256344
scalar SlicingScenario.node[12].veinsmobility maxSpeed 11.104189596502
scalar SlicingScenario.node[12].veinsmobility totalDistance 979.55824125757
scalar SlicingScenario.node[12].veinsmobility totalCO2Emission 167.02328029635
scalar SlicingScenario.node[13].appl txPackets_91 0
scalar SlicingScenario.node[13].appl rxPackets_91 0
scalar SlicingScenario.node[13].appl rxNeighborPackets_91 0
scalar SlicingScenario.node[13].appl meanDelay_91 0
scalar SlicingScenario.node[13].appl meanJitter_91 0
scalar SlicingScenario.node[13].appl meanRxPacketSize_91 0
scalar SlicingScenario.node[13].appl meanTxPacketSize_91 0
scalar SlicingScenario.node[13].appl meanRxThroughput_91 0
scalar SlicingScenario.node[13].appl meanTxThroughput_91 0
scalar SlicingScenario.node[13].appl rxTimeOfService_91 0
scalar SlicingScenario.node[13].appl txTimeOfService_91 0
scalar SlicingScenario.node[13].appl txPackets_41_91 0
scalar SlicingScenario.node[13].appl rxPackets_41_91 73
scalar SlicingScenario.node[13].appl rxNeighborPackets_41_91 1241
scalar SlicingScenario.node[13].appl meanDelay_41_91 0.002073431234
scalar SlicingScenario.node[13].appl meanJitter_41_91 2.9011796e-05
scalar SlicingScenario.node[13].appl meanRxPacketSize_41_91 1510
scalar SlicingScenario.node[13].appl meanTxPacketSize_41_91 0
scalar SlicingScenario.node[13].appl meanRxThroughput_41_91 12247.777889936
scalar SlicingScenario.node[13].appl meanTxThroughput_41_91 0
scalar SlicingScenario.node[13].appl rxTimeOfService_41_91 71.999999340665
scalar SlicingScenario.node[13].appl txTimeOfService_41_91 0
scalar SlicingScenario.node[13].nic.phy80211p busyTime 0.054247304347824
scalar SlicingScenario.node[13].nic.phy80211p ncollisions 0
scalar SlicingScenario.node[13].nic.phy80211p UnderSensitivityPackets 286
scalar SlicingScenario.node[13].nic.mac1609_4 ReceivedUnicastPackets_CCH 0
scalar SlicingScenario.node[13].nic.mac1609_4 ReceivedBroadcasts_CCH 0
scalar SlicingScenario.node[13].nic.mac1609_4 SentPackets_CCH 0
scalar SlicingScenario.node[13].nic.mac1609_4 SentAcknowledgements_CCH 0
scalar SlicingScenario.node[13].nic.mac1609_4 SNIRLostPackets_CCH 0
scalar SlicingScenario.node[13].nic.mac1609_4 RXTXLostPackets_CCH 0
scalar SlicingScenario.node[13].nic.mac1609_4 TotalLostPackets_CCH 0
scalar SlicingScenario.node[13].nic.mac1609_4 DroppedPacketsInMac_CCH 0
scalar SlicingScenario.node[13].nic.mac1609_4 TooLittleTime_CCH 0
scalar SlicingScenario.node[13].nic.mac1609_4 TimesIntoBackoff_CCH 0
scalar SlicingScenario.node[13].nic.mac1609_4 SlotsBackoff_CCH 0
scalar SlicingScenario.node[13].nic.mac1609_4 NumInternalContention_CCH 0
scalar SlicingScenario.node[13].nic.mac1609_4 RemainingPacketsInEDCA_CCH 0
scalar SlicingScenario.node[13].nic.mac1609_4 totalBusyTime_CCH 0
scalar SlicingScenario.node[13].nic.mac1609_4 ReceivedUnicastPackets_SCH 0
scalar SlicingScenario.node[13].nic.mac1609_4 ReceivedBroadcasts_SCH 2418
scalar SlicingScenario.node[13].nic.mac1609_4 SentPackets_SCH 0
scalar SlicingScenario.node[13].nic.mac1609_4 SentAcknowledgements_SCH 0
scalar SlicingScenario.node[13].nic.mac1609_4 SNIRLostPackets_SCH 0
scalar SlicingScenario.node[13].nic.mac1609_4 RXTXLostPackets_SCH 0
scalar SlicingScenario.node[13].nic.mac1609_4 TotalLostPackets_SCH 0
scalar SlicingScenario.node[13].nic.mac1609_4 DroppedPacketsInMac_SCH 0
scalar SlicingScenario.node[13].nic.mac1609_4 TooLittleTime_SCH 0
scalar SlicingScenario.node[13].nic.mac1609_4 TimesIntoBackoff_SCH 0
scalar SlicingScenario.node[13].nic.mac1609_4 SlotsBackoff_SCH 0
scalar SlicingScenario.node[13].nic.mac1609_4 NumInternalContention_SCH 0
scalar SlicingScenario.node[13].nic.mac1609_4 RemainingPacketsInEDCA_SCH 0
scalar SlicingScenario.node[13].nic.mac1609_4 totalBusyTime_SCH 4.990752
scalar SlicingScenario.node[13].veinsmobility startTime 14
scalar SlicingScenario.node[13].veinsmobility totalTime 91
scalar SlicingScenario.node[13].veinsmobility stopTime 106
scalar SlicingScenario.node[13].veinsmobility minSpeed 10.61431795232
scalar SlicingScenario.node[13].veinsmobility maxSpeed 11.093083477477
scalar SlicingScenario.node[13].veinsmobility totalDistance 978.94520564672
scalar SlicingScenario.node[13].veinsmobility totalCO2Emission 157.88477922872
scalar SlicingScenario.node[14].appl txPackets_97 0
scalar SlicingScenario.node[14].appl rxPackets_97 0
scalar SlicingScenario.node[14].appl rxNeighborPackets_97 0
scalar SlicingScenario.node[14].appl meanDelay_97 0
scalar SlicingScenario.node[14].appl meanJitter_97 0
scalar SlicingScenario.node[14].appl meanRxPacketSize_97 0
scalar SlicingScenario.node[14].appl meanTxPacketSize_97 0
scalar SlicingScenario.node[14].appl meanRxThroughput_97 0
scalar SlicingScenario.node[14].appl meanTxThroughput_97 0
scalar SlicingScenario.node[14].appl rxTimeOfService_97 0
scalar SlicingScenario.node[14].appl txTimeOfService_97 0
scalar SlicingScenario.node[14].appl txPackets_41_97 0
scalar SlicingScenario.node[14].appl rxPackets_41_97 72
scalar SlicingScenario.node[14].appl rxNeighborPackets_41_97 1266
scalar SlicingScenario.node[14].appl meanDelay_41_97 0.002069408024
scalar SlicingScenario.node[14].appl meanJitter_41_97 2.9465589e-05
scalar SlicingScenario.node[14].appl meanRxPacketSize_41_97 1510
scalar SlicingScenario.node[14].appl meanTxPacketSize_41_97 0
scalar SlicingScenario.node[14].appl meanRxThroughput_41_97 12250.140953592
scalar SlicingScenario.node[14].appl meanTxThroughput_41_97 0
scalar SlicingScenario.node[14].appl rxTimeOfService_41_97 70.999999371024
scalar SlicingScenario.node[14].appl txTimeOfService_41_97 0
scalar SlicingScenario.node[14].nic.phy80211p busyTime 0.05516713043478
scalar SlicingScenario.node[14].nic.phy80211p ncollisions 0
scalar SlicingScenario.node[14].nic.phy80211p UnderSensitivityPackets 290
scalar SlicingScenario.node[14].nic.mac1609_4 ReceivedUnicastPackets_CCH 0
scalar SlicingScenario.node[14].nic.mac1609_4 ReceivedBroadcasts_CCH 0
scalar SlicingScenario.node[14].nic.mac1609_4 SentPackets_CCH 0
scalar SlicingScenario.node[14].nic.mac1609_4 SentAcknowledgements_CCH 0
scalar SlicingScenario.node[14].nic.mac1609_4 SNIRLostPackets_CCH 0
scalar SlicingScenario.node[14].nic.mac1609_4 RXTXLostPackets_CCH 0
scalar SlicingScenario.node[14].nic.mac1609_4 TotalLostPackets_CCH 0
scalar SlicingScenario.node[14].nic.mac1609_4 DroppedPacketsInMac_CCH 0
scalar SlicingScenario.node[14].nic.mac1609_4 TooLittleTime_CCH 0
scalar SlicingScenario.node[14].nic.mac1609_4 TimesIntoBackoff_CCH 0
scalar SlicingScenario.node[14].nic.mac1609_4 SlotsBackoff_CCH 0
scalar SlicingScenario.node[14].nic.mac1609_4 NumInternalContention_CCH 0
scalar SlicingScenario.node[14].nic.mac1609_4 RemainingPacketsInEDCA_CCH 0
scalar SlicingScenario.node[14].nic.mac1609_4 totalBusyTime_CCH 0
scalar SlicingScenario.node[14].nic.mac1609_4 ReceivedUnicastPackets_SCH 0
scalar SlicingScenario.node[14].nic.mac1609_4 ReceivedBroadcasts_SCH 2459
scalar SlicingScenario.node[14].nic.mac1609_4 SentPackets_SCH 0
scalar SlicingScenario.node[14].nic.mac1609_4 SentAcknowledgements_SCH 0
scalar SlicingScenario.node[14].nic.mac1609_4 SNIRLostPackets_SCH 0
scalar SlicingScenario.node[14].nic.mac1609_4 RXTXLostPackets_SCH 0
scalar SlicingScenario.node[14].nic.mac1609_4 TotalLostPackets_SCH 0
scalar SlicingScenario.node[14].nic.mac1609_4 DroppedPacketsInMac_SCH 0
scalar SlicingScenario.node[14].nic.mac1609_4 TooLittleTime_SCH 0
scalar SlicingScenario.node[14].nic.mac1609_4 TimesIntoBackoff_SCH 0
scalar SlicingScenario.node[14].nic.mac1609_4 SlotsBackoff_SCH 0
scalar SlicingScenario.node[14].nic.mac1609_4 NumInternalContention_SCH 0
scalar SlicingScenario.node[14].nic.mac1609_4 RemainingPacketsInEDCA_SCH 0
scalar SlicingScenario.node[14].nic.mac1609_4 totalBusyTime_SCH 5.075376
scalar SlicingScenario.node[14].veinsmobility startTime 15
scalar SlicingScenario.node[14].veinsmobility totalTime 91
scalar SlicingScenario.node[14].veinsmobility stopTime 107
scalar SlicingScenario.node[14].veinsmobility minSpeed 10.610234184903
scalar SlicingScenario.node[14].veinsmobility maxSpeed 11.10393903173
scalar SlicingScenario.node[14].veinsmobility totalDistance 977.11658733142
scalar SlicingScenario.node[14].veinsmobility totalCO2Emission 155.92265147698
scalar SlicingScenario.node[15].appl txPackets_103 0
scalar SlicingScenario.node[15].appl rxPackets_103 0
scalar SlicingScenario.node[15].appl rxNeighborPackets_103 0
scalar SlicingScenario.node[15].appl meanDelay_103 0
scalar SlicingScenario.node[15].appl meanJitter_103 0
scalar SlicingScenario.node[15].appl meanRxPacketSize_103 0
scalar SlicingScenario.node[15].appl meanTxPacketSize_103 0
scalar SlicingScenario.node[15].appl meanRxThroughput_103 0
scalar SlicingScenario.node[15].appl meanTxThroughput_103 0
scalar SlicingScenario.node[15].appl rxTimeOfService_103 0
scalar SlicingScenario.node[15].appl txTimeOfService_103 0
scalar SlicingScenario.node[15].appl txPackets_40_103 0
scalar SlicingScenario.node[15].appl rxPackets_40_103 71
scalar SlicingScenario.node[15].appl rxNeighborPackets_40_103 1067
scalar SlicingScenario.node[15].appl meanDelay_40_103 0.002071471904
scalar SlicingScenario.node[15].appl meanJitter_40_103 2.9881934e-05
scalar SlicingScenario.node[15].appl meanRxPacketSize_40_103 1510
scalar SlicingScenario.node[15].appl meanTxPacketSize_40_103 0
scalar SlicingScenario.node[15].appl meanRxThroughput_40_103 12252.57083207
scalar SlicingScenario.node[15].appl meanTxThroughput_40_103 0
scalar SlicingScenario.node[15].appl rxTimeOfService_40_103 70.000003407862
scalar SlicingScenario.node[15].appl txTimeOfService_40_103 0
scalar SlicingScenario.node[15].nic.phy80211p busyTime 0.056109391304345
scalar SlicingScenario.node[15].nic.phy80211p ncollisions 0
scalar SlicingScenario.node[15].nic.phy80211p UnderSensitivityPackets 293
scalar SlicingScenario.node[15].nic.mac1609_4 ReceivedUnicastPackets_CCH 0
scalar SlicingScenario.node[15].nic.mac1609_4 ReceivedBroadcasts_CCH 0
scalar SlicingScenario.node[15].nic.mac1609_4 SentPackets_CCH 0
scalar SlicingScenario.node[15].nic.mac1609_4 SentAcknowledgements_CCH 0
scalar SlicingScenario.node[15].nic.mac1609_4 SNIRLostPackets_CCH 0
scalar SlicingScenario.node[15].nic.mac1609_4 RXTXLostPackets_CCH 0
scalar SlicingScenario.node[15].nic.mac1609_4 TotalLostPackets_CCH 0
scalar SlicingScenario.node[15].nic.mac1609_4 DroppedPacketsInMac_CCH 0
scalar SlicingScenario.node[15].nic.mac1609_4 TooLittleTime_CCH 0
scalar SlicingScenario.node[15].nic.mac1609_4 TimesIntoBackoff_CCH 0
scalar SlicingScenario.node[15].nic.mac1609_4 SlotsBackoff_CCH 0
scalar SlicingScenario.node[15].nic.mac1609_4 NumInternalContention_CCH 0
scalar SlicingScenario.node[15].nic.mac1609_4 RemainingPacketsInEDCA_CCH 0
scalar SlicingScenario.node[15].nic.mac1609_4 totalBusyTime_CCH 0
scalar SlicingScenario.node[15].nic.mac1609_4 ReceivedUnicastPackets_SCH 0
scalar SlicingScenario.node[15].nic.mac1609_4 ReceivedBroadcasts_SCH 2501
scalar SlicingScenario.node[15].nic.mac1609_4 SentPackets_SCH 0
scalar SlicingScenario.node[15].nic.mac1609_4 SentAcknowledgements_SCH 0
scalar SlicingScenario.node[15].nic.mac1609_4 SNIRLostPackets_SCH 0
scalar SlicingScenario.node[15].nic.mac1609_4 RXTXLostPackets_SCH 0
scalar SlicingScenario.node[15].nic.mac1609_4 TotalLostPackets_SCH 0
scalar SlicingScenario.node[15].nic.mac1609_4 DroppedPacketsInMac_SCH 0
scalar SlicingScenario.node[15].nic.mac1609_4 TooLittleTime_SCH 0
scalar SlicingScenario.node[15].nic.mac1609_4 TimesIntoBackoff_SCH 0
scalar SlicingScenario.node[15].nic.mac1609_4 SlotsBackoff_SCH 0
scalar SlicingScenario.node[15].nic.mac1609_4 NumInternalContention_SCH 0
scalar SlicingScenario.node[15].nic.mac1609_4 RemainingPacketsInEDCA_SCH 0
scalar SlicingScenario.node[15].nic.mac1609_4 totalBusyTime_SCH 5.162064
scalar SlicingScenario.node[15].veinsmobility startTime 16
scalar SlicingScenario.node[15].veinsmobility totalTime 91
scalar SlicingScenario.node[15].veinsmobility stopTime 108
scalar SlicingScenario.node[15].veinsmobility minSpeed 10.613522436484
scalar SlicingScenario.node[15].veinsmobility maxSpeed 11.105943080052
scalar SlicingScenario.node[15].veinsmobility totalDistance 978.15382955738
scalar SlicingScenario.node[15].veinsmobility totalCO2Emission 158.23382155864
scalar SlicingScenario.node[16].appl txPackets_109 0
scalar SlicingScenario.node[16].appl rxPackets_109 0
scalar SlicingScenario.node[16].appl rxNeighborPackets_109 0
scalar SlicingScenario.node[16].appl meanDelay_109 0
scalar SlicingScenario.node[16].appl meanJitter_109 0
scalar SlicingScenario.node[16].appl meanRxPacketSize_109 0
scalar SlicingScenario.node[16].appl meanTxPacketSize_109 0
scalar SlicingScenario.node[16].appl meanRxThroughput_109 0
scalar SlicingScenario.node[16].appl meanTxThroughput_109 0
scalar SlicingScenario.node[16].appl rxTimeOfService_109 0
scalar SlicingScenario.node[16].appl txTimeOfService_109 0
scalar SlicingScenario.node[16].appl txPackets_40_109 0
scalar SlicingScenario.node[16].appl rxPackets_40_109 70
scalar SlicingScenario.node[16].appl rxNeighborPackets_40_109 1085
scalar SlicingScenario.node[16].appl meanDelay_40_109 0.00217871706
scalar SlicingScenario.node[16].appl meanJitter_40_109 4.4673176e-05
scalar SlicingScenario.node[16].appl meanRxPacketSize_40_109 1510
scalar SlicingScenario.node[16].appl meanTxPacketSize_40_109 0
scalar SlicingScenario.node[16].appl meanRxThroughput_40_109 12255.027803558
scalar SlicingScenario.node[16].appl meanTxThroughput_40_109 0
scalar SlicingScenario.node[16].appl rxTimeOfService_40_109 69.000251452266
scalar SlicingScenario.node[16].appl txTimeOfService_40_109 0
scalar SlicingScenario.node[16].nic.phy80211p busyTime 0.057029217391302
scalar SlicingScenario.node[16].nic.phy80211p ncollisions 0
scalar SlicingScenario.node[16].nic.phy80211p UnderSensitivityPackets 297
scalar SlicingScenario.node[16].nic.mac1609_4 ReceivedUnicastPackets_CCH 0
scalar SlicingScenario.node[16].nic.mac1609_4 ReceivedBroadcasts_CCH 0
scalar SlicingScenario.node[16].nic.mac1609_4 SentPackets_CCH 0
scalar SlicingScenario.node[16].nic.mac1609_4 SentAcknowledgements_CCH 0
scalar SlicingScenario.node[16].nic.mac1609_4 SNIRLostPackets_CCH 0
scalar SlicingScenario.node[16].nic.mac1609_4 RXTXLostPackets_CCH 0
scalar SlicingScenario.node[16].nic.mac1609_4 TotalLostPackets_CCH 0
scalar SlicingScenario.node[16].nic.mac1609_4 DroppedPacketsInMac_CCH 0
scalar SlicingScenario.node[16].nic.mac1609_4 TooLittleTime_CCH 0
scalar SlicingScenario.node[16].nic.mac1609_4 TimesIntoBackoff_CCH 0
scalar SlicingScenario.node[16].nic.mac1609_4 SlotsBackoff_CCH 0
scalar SlicingScenario.node[16].nic.mac1609_4 NumInternalContention_CCH 0
scalar SlicingScenario.node[16].nic.mac1609_4 RemainingPacketsInEDCA_CCH 0
scalar SlicingScenario.node[16].nic.mac1609_4 totalBusyTime_CCH 0
scalar SlicingScenario.node[16].nic.mac1609_4 ReceivedUnicastPackets_SCH 0
scalar SlicingScenario.node[16].nic.mac1609_4 ReceivedBroadcasts_SCH 2542
scalar SlicingScenario.node[16].nic.mac1609_4 SentPackets_SCH 0
scalar SlicingScenario.node[16].nic.mac1609_4 SentAcknowledgements_SCH 0
scalar SlicingScenario.node[16].nic.mac1609_4 SNIRLostPackets_SCH 0
scalar SlicingScenario.node[16].nic.mac1609_4 RXTXLostPackets_SCH 0
scalar SlicingScenario.node[16].nic.mac1609_4 TotalLostPackets_SCH 0
scalar SlicingScenario.node[16].nic.mac1609_4 DroppedPacketsInMac_SCH 0
scalar SlicingScenario.node[16].nic.mac1609_4 TooLittleTime_SCH 0
scalar SlicingScenario.node[16].nic.mac1609_4 TimesIntoBackoff_SCH 0
scalar SlicingScenario.node[16].nic.mac1609_4 SlotsBackoff_SCH 0
scalar SlicingScenario.node[16].nic.mac1609_4 NumInternalContention_SCH 0
scalar SlicingScenario.node[16].nic.mac1609_4 RemainingPacketsInEDCA_SCH 0
scalar SlicingScenario.node[16].nic.mac1609_4 totalBusyTime_SCH 5.246688
scalar SlicingScenario.node[16].veinsmobility startTime 17
scalar SlicingScenario.node[16].veinsmobility totalTime 91
scalar SlicingScenario.node[16].veinsmobility stopTime 109
scalar SlicingScenario.node[16].veinsmobility minSpeed 10.610750249019
scalar SlicingScenario.node[16].veinsmobility maxSpeed 11.099210818661
scalar SlicingScenario.node[16].veinsmobility totalDistance 979.23885162397
scalar SlicingScenario.node[16].veinsmobility totalCO2Emission 159.07370190059
scalar SlicingScenario.node[17].appl txPackets_115 0
scalar SlicingScenario.node[17].appl rxPackets_115 0
scalar SlicingScenario.node[17].appl rxNeighborPackets_115 0
scalar SlicingScenario.node[17].appl meanDelay_115 0
scalar SlicingScenario.node[17].appl meanJitter_115 0
scalar SlicingScenario.node[17].appl meanRxPacketSize_115 0
scalar SlicingScenario.node[17].appl meanTxPacketSize_115 0
scalar SlicingScenario.node[17].appl meanRxThroughput_115 0
scalar SlicingScenario.node[17].appl meanTxThroughput_115 0
scalar SlicingScenario.node[17].appl rxTimeOfService_115 0
scalar SlicingScenario.node[17].appl txTimeOfService_115 0
scalar SlicingScenario.node[17].appl txPackets_41_115 0
scalar SlicingScenario.node[17].appl rxPackets_41_115 69
scalar SlicingScenario.node[17].appl rxNeighborPackets_41_115 1343
scalar SlicingScenario.node[17].appl meanDelay_41_115 0.003283690547
scalar SlicingScenario.node[17].appl meanJitter_41_115 8.2499174e-05
scalar SlicingScenario.node[17].appl meanRxPacketSize_41_115 1510
scalar SlicingScenario.node[17].appl meanTxPacketSize_41_115 0
scalar SlicingScenario.node[17].appl meanRxThroughput_41_115 12257.36361022
scalar SlicingScenario.node[17].appl meanTxThroughput_41_115 0
scalar SlicingScenario.node[17].appl rxTimeOfService_41_115 68.001572483744
scalar SlicingScenario.node[17].appl txTimeOfService_41_115 0
scalar SlicingScenario.node[17].nic.phy80211p busyTime 0.057971478260867
scalar SlicingScenario.node[17].nic.phy80211p ncollisions 0
scalar SlicingScenario.node[17].nic.phy80211p UnderSensitivityPackets 301
scalar SlicingScenario.node[17].nic.mac1609_4 ReceivedUnicastPackets_CCH 0
scalar SlicingScenario.node[17].nic.mac1609_4 ReceivedBroadcasts_CCH 0
scalar SlicingScenario.node[17].nic.mac1609_4 SentPackets_CCH 0
scalar SlicingScenario.node[17].nic.mac1609_4 SentAcknowledgements_CCH 0
scalar SlicingScenario.node[17].nic.mac1609_4 SNIRLostPackets_CCH 0
scalar SlicingScenario.node[17].nic.mac1609_4 RXTXLostPackets_CCH 0
scalar SlicingScenario.node[17].nic.mac1609_4 TotalLostPackets_CCH 0
scalar SlicingScenario.node[17].nic.mac1609_4 DroppedPacketsInMac_CCH 0
scalar SlicingScenario.node[17].nic.mac1609_4 TooLittleTime_CCH 0
scalar SlicingScenario.node[17].nic.mac1609_4 TimesIntoBackoff_CCH 0
scalar SlicingScenario.node[17].nic.mac1609_4 SlotsBackoff_CCH 0
scalar SlicingScenario.node[17].nic.mac1609_4 NumInternalContention_CCH 0
scalar SlicingScenario.node[17].nic.mac1609_4 RemainingPacketsInEDCA_CCH 0
scalar SlicingScenario.node[17].nic.mac1609_4 totalBusyTime_CCH 0
scalar SlicingScenario.node[17].nic.mac1609_4 ReceivedUnicastPackets_SCH 0
scalar SlicingScenario.node[17].nic.mac1609_4 ReceivedBroadcasts_SCH 2584
scalar SlicingScenario.node[17].nic.mac1609_4 SentPackets_SCH 0
scalar SlicingScenario.node[17].nic.mac1609_4 SentAcknowledgements_SCH 0
scalar SlicingScenario.node[17].nic.mac1609_4 SNIRLostPackets_SCH 0
scalar SlicingScenario.node[17].nic.mac1609_4 RXTXLostPackets_SCH 0
scalar SlicingScenario.node[17].nic.mac1609_4 TotalLostPackets_SCH 0
scalar SlicingScenario.node[17].nic.mac1609_4 DroppedPacketsInMac_SCH 0
scalar SlicingScenario.node[17].nic.mac1609_4 TooLittleTime_SCH 0
scalar SlicingScenario.node[17].nic.mac1609_4 TimesIntoBackoff_SCH 0
scalar SlicingScenario.node[17].nic.mac1609_4 SlotsBackoff_SCH 0
scalar SlicingScenario.node[17].nic.mac1609_4 NumInternalContention_SCH 0
scalar SlicingScenario.node[17].nic.mac1609_4 RemainingPacketsInEDCA_SCH 0
scalar SlicingScenario.node[17].nic.mac1609_4 totalBusyTime_SCH 5.333376
scalar SlicingScenario.node[17].veinsmobility startTime 18
scalar SlicingScenario.node[17].veinsmobility totalTime 91
scalar SlicingScenario.node[17].veinsmobility stopTime 110
scalar SlicingScenario.node[17].veinsmobility minSpeed 10.61272751553
scalar SlicingScenario.node[17].veinsmobility maxSpeed 11.099799848059
scalar SlicingScenario.node[17].veinsmobility totalDistance 978.09417722912
scalar SlicingScenario.node[17].veinsmobility totalCO2Emission 158.38415360577
scalar SlicingScenario.node[18].appl txPackets_121 0
scalar SlicingScenario.node[18].appl rxPackets_121 0
scalar SlicingScenario.node[18].appl rxNeighborPackets_121 0
scalar SlicingScenario.node[18].appl meanDelay_121 0
scalar SlicingScenario.node[18].appl meanJitter_121 0
scalar SlicingScenario.node[18].appl meanRxPacketSize_121 0
scalar SlicingScenario.node[18].appl meanTxPacketSize_121 0
scalar SlicingScenario.node[18].appl meanRxThroughput_121 0
scalar SlicingScenario.node[18].appl meanTxThroughput_121 0
scalar SlicingScenario.node[18].appl rxTimeOfService_121 0
scalar SlicingScenario.node[18].appl txTimeOfService_121 0
scalar SlicingScenario.node[18].appl txPackets_41_121 0
scalar SlicingScenario.node[18].appl rxPackets_41_121 68
scalar SlicingScenario.node[18].appl rxNeighborPackets_41_121 1369
scalar SlicingScenario.node[18].appl meanDelay_41_121 0.002068770653
scalar SlicingScenario.node[18].appl meanJitter_41_121 3.0953276e-05
scalar SlicingScenario.node[18].appl meanRxPacketSize_41_121 1510
scalar SlicingScenario.node[18].appl meanTxPacketSize_41_121 0
scalar SlicingScenario.node[18].appl meanRxThroughput_41_121 12260.297679022
scalar SlicingScenario.node[18].appl meanTxThroughput_41_121 0
scalar SlicingScenario.node[18].appl rxTimeOfService_41_121 67.00000452726
scalar SlicingScenario.node[18].appl txTimeOfService_41_121 0
scalar SlicingScenario.node[18].nic.phy80211p busyTime 0.058913739130432
scalar SlicingScenario.node[18].nic.phy80211p ncollisions 0
scalar SlicingScenario.node[18].nic.phy80211p UnderSensitivityPackets 305
scalar SlicingScenario.node[18].nic.mac1609_4 ReceivedUnicastPackets_CCH 0
scalar SlicingScenario.node[18].nic.mac1609_4 ReceivedBroadcasts_CCH 0
scalar SlicingScenario.node[18].nic.mac1609_4 SentPackets_CCH 0
scalar SlicingScenario.node[18].nic.mac1609_4 SentAcknowledgements_CCH 0
scalar SlicingScenario.node[18].nic.mac1609_4 SNIRLostPackets_CCH 0
scalar SlicingScenario.node[18].nic.mac1609_4 RXTXLostPackets_CCH 0
scalar SlicingScenario.node[18].nic.mac1609_4 TotalLostPackets_CCH 0
scalar SlicingScenario.node[18].nic.mac1609_4 DroppedPacketsInMac_CCH 0
scalar SlicingScenario.node[18].nic.mac1609_4 TooLittleTime_CCH 0
scalar SlicingScenario.node[18].nic.mac1609_4 TimesIntoBackoff_CCH 0
scalar SlicingScenario.node[18].nic.mac1609_4 SlotsBackoff_CCH 0
scalar SlicingScenario.node[18].nic.mac1609_4 NumInternalContention_CCH 0
scalar SlicingScenario.node[18].nic.mac1609_4 RemainingPacketsInEDCA_CCH 0
scalar SlicingScenario.node[18].nic.mac1609_4 totalBusyTime_CCH 0
scalar SlicingScenario.node[18].nic.mac1609_4 ReceivedUnicastPackets_SCH 0
scalar SlicingScenario.node[18].nic.mac1609_4 ReceivedBroadcasts_SCH 2626
scalar SlicingScenario.node[18].nic.mac1609_4 SentPackets_SCH 0
scalar SlicingScenario.node[18].nic.mac1609_4 SentAcknowledgements_SCH 0
scalar SlicingScenario.node[18].nic.mac1609_4 SNIRLostPackets_SCH 0
scalar SlicingScenario.node[18].nic.mac1609_4 RXTXLostPackets_SCH 0
scalar SlicingScenario.node[18].nic.mac1609_4 TotalLostPackets_SCH 0
scalar SlicingScenario.node[18].nic.mac1609_4 DroppedPacketsInMac_SCH 0
scalar SlicingScenario.node[18].nic.mac1609_4 TooLittleTime_SCH 0
scalar SlicingScenario.node[18].nic.mac1609_4 TimesIntoBackoff_SCH 0
scalar SlicingScenario.node[18].nic.mac1609_4 SlotsBackoff_SCH 0
scalar SlicingScenario.node[18].nic.mac1609_4 NumInternalContention_SCH 0
scalar SlicingScenario.node[18].nic.mac1609_4 RemainingPacketsInEDCA_SCH 0
scalar SlicingScenario.node[18].nic.mac1609_4 totalBusyTime_SCH 5.420064
scalar SlicingScenario.node[18].veinsmobility startTime 19
scalar SlicingScenario.node[18].veinsmobility totalTime 91
scalar SlicingScenario.node[18].veinsmobility stopTime 111
scalar SlicingScenario.node[18].veinsmobility minSpeed 10.635668984163
scalar SlicingScenario.node[18].veinsmobility maxSpeed 11.092102924725
scalar SlicingScenario.node[18].veinsmobility totalDistance 980.71519705188
scalar SlicingScenario.node[18].veinsmobility totalCO2Emission 157.42030929241
scalar SlicingScenario.node[19].appl txPackets_127 0
scalar SlicingScenario.node[19].appl rxPackets_127 0
scalar SlicingScenario.node[19].appl rxNeighborPackets_127 0
scalar SlicingScenario.node[19].appl meanDelay_127 0
scalar SlicingScenario.node[19].appl meanJitter_127 0
scalar SlicingScenario.node[19].appl meanRxPacketSize_127 0
scalar SlicingScenario.node[19].appl meanTxPacketSize_127 0
scalar SlicingScenario.node[19].appl meanRxThroughput_127 0
scalar SlicingScenario.node[19].appl meanTxThroughput_127 0
scalar SlicingScenario.node[19].appl rxTimeOfService_127 0
scalar SlicingScenario.node[19].appl txTimeOfService_127 0
scalar SlicingScenario.node[19].appl txPackets_41_127 0
scalar SlicingScenario.node[19].appl rxPackets_41_127 67
scalar SlicingScenario.node[19].appl rxNeighborPackets_41_127 1395
scalar SlicingScenario.node[19].appl meanDelay_41_127 0.002071040309
scalar SlicingScenario.node[19].appl meanJitter_41_127 3.1421023e-05
scalar SlicingScenario.node[19].appl meanRxPacketSize_41_127 1510
scalar SlicingScenario.node[19].appl meanTxPacketSize_41_127 0
scalar SlicingScenario.node[19].appl meanRxThroughput_41_127 12263.029457283
scalar SlicingScenario.node[19].appl meanTxThroughput_41_127 0
scalar SlicingScenario.node[19].appl rxTimeOfService_41_127 66.00000455184
scalar SlicingScenario.node[19].appl txTimeOfService_41_127 0
scalar SlicingScenario.node[19].nic.phy80211p busyTime 0.059855999999997
scalar SlicingScenario.node[19].nic.phy80211p ncollisions 0
scalar SlicingScenario.node[19].nic.phy80211p UnderSensitivityPackets 309
scalar SlicingScenario.node[19].nic.mac1609_4 ReceivedUnicastPackets_CCH 0
scalar SlicingScenario.node[19].nic.mac1609_4 ReceivedBroadcasts_CCH 0
scalar SlicingScenario.node[19].nic.mac1609_4 SentPackets_CCH 0
[...]
scalar SlicingScenario.rsu[0].appl rxPackets_41_643 0
scalar SlicingScenario.rsu[0].appl rxNeighborPackets_41_643 0
scalar SlicingScenario.rsu[0].appl meanDelay_41_643 0
scalar SlicingScenario.rsu[0].appl meanJitter_41_643 0
scalar SlicingScenario.rsu[0].appl meanRxPacketSize_41_643 0
scalar SlicingScenario.rsu[0].appl meanTxPacketSize_41_643 1510
scalar SlicingScenario.rsu[0].appl meanRxThroughput_41_643 0
scalar SlicingScenario.rsu[0].appl meanTxThroughput_41_643 12122.090592334
scalar SlicingScenario.rsu[0].appl rxTimeOfService_41_643 0
scalar SlicingScenario.rsu[0].appl txTimeOfService_41_643 287
scalar SlicingScenario.rsu[0].appl txPackets_41_649 286
scalar SlicingScenario.rsu[0].appl rxPackets_41_649 0
scalar SlicingScenario.rsu[0].appl rxNeighborPackets_41_649 0
scalar SlicingScenario.rsu[0].appl meanDelay_41_649 0
scalar SlicingScenario.rsu[0].appl meanJitter_41_649 0
scalar SlicingScenario.rsu[0].appl meanRxPacketSize_41_649 0
scalar SlicingScenario.rsu[0].appl meanTxPacketSize_41_649 1510
scalar SlicingScenario.rsu[0].appl meanRxThroughput_41_649 0
scalar SlicingScenario.rsu[0].appl meanTxThroughput_41_649 12122.385964912
scalar SlicingScenario.rsu[0].appl rxTimeOfService_41_649 0
scalar SlicingScenario.rsu[0].appl txTimeOfService_41_649 285
scalar SlicingScenario.rsu[0].appl txPackets_41_661 282
scalar SlicingScenario.rsu[0].appl rxPackets_41_661 0
scalar SlicingScenario.rsu[0].appl rxNeighborPackets_41_661 0
scalar SlicingScenario.rsu[0].appl meanDelay_41_661 0
scalar SlicingScenario.rsu[0].appl meanJitter_41_661 0
scalar SlicingScenario.rsu[0].appl meanRxPacketSize_41_661 0
scalar SlicingScenario.rsu[0].appl meanTxPacketSize_41_661 1510
scalar SlicingScenario.rsu[0].appl meanRxThroughput_41_661 0
scalar SlicingScenario.rsu[0].appl meanTxThroughput_41_661 12122.989323843
scalar SlicingScenario.rsu[0].appl rxTimeOfService_41_661 0
scalar SlicingScenario.rsu[0].appl txTimeOfService_41_661 281
scalar SlicingScenario.rsu[0].appl txPackets_41_685 274
scalar SlicingScenario.rsu[0].appl rxPackets_41_685 0
scalar SlicingScenario.rsu[0].appl rxNeighborPackets_41_685 0
scalar SlicingScenario.rsu[0].appl meanDelay_41_685 0
scalar SlicingScenario.rsu[0].appl meanJitter_41_685 0
scalar SlicingScenario.rsu[0].appl meanRxPacketSize_41_685 0
scalar SlicingScenario.rsu[0].appl meanTxPacketSize_41_685 1510
scalar SlicingScenario.rsu[0].appl meanRxThroughput_41_685 0
scalar SlicingScenario.rsu[0].appl meanTxThroughput_41_685 12124.249084249
scalar SlicingScenario.rsu[0].appl rxTimeOfService_41_685 0
scalar SlicingScenario.rsu[0].appl txTimeOfService_41_685 273
scalar SlicingScenario.rsu[0].appl txPackets_41_691 272
scalar SlicingScenario.rsu[0].appl rxPackets_41_691 0
scalar SlicingScenario.rsu[0].appl rxNeighborPackets_41_691 0
scalar SlicingScenario.rsu[0].appl meanDelay_41_691 0
scalar SlicingScenario.rsu[0].appl meanJitter_41_691 0
scalar SlicingScenario.rsu[0].appl meanRxPacketSize_41_691 0
scalar SlicingScenario.rsu[0].appl meanTxPacketSize_41_691 1510
scalar SlicingScenario.rsu[0].appl meanRxThroughput_41_691 0
scalar SlicingScenario.rsu[0].appl meanTxThroughput_41_691 12124.575645756
scalar SlicingScenario.rsu[0].appl rxTimeOfService_41_691 0
scalar SlicingScenario.rsu[0].appl txTimeOfService_41_691 271
scalar SlicingScenario.rsu[0].appl txPackets_41_697 270
scalar SlicingScenario.rsu[0].appl rxPackets_41_697 0
scalar SlicingScenario.rsu[0].appl rxNeighborPackets_41_697 0
scalar SlicingScenario.rsu[0].appl meanDelay_41_697 0
scalar SlicingScenario.rsu[0].appl meanJitter_41_697 0
scalar SlicingScenario.rsu[0].appl meanRxPacketSize_41_697 0
scalar SlicingScenario.rsu[0].appl meanTxPacketSize_41_697 1510
scalar SlicingScenario.rsu[0].appl meanRxThroughput_41_697 0
scalar SlicingScenario.rsu[0].appl meanTxThroughput_41_697 12124.907063197
scalar SlicingScenario.rsu[0].appl rxTimeOfService_41_697 0
scalar SlicingScenario.rsu[0].appl txTimeOfService_41_697 269
scalar SlicingScenario.rsu[0].appl txPackets_41_703 268
scalar SlicingScenario.rsu[0].appl rxPackets_41_703 0
scalar SlicingScenario.rsu[0].appl rxNeighborPackets_41_703 0
scalar SlicingScenario.rsu[0].appl meanDelay_41_703 0
scalar SlicingScenario.rsu[0].appl meanJitter_41_703 0
scalar SlicingScenario.rsu[0].appl meanRxPacketSize_41_703 0
scalar SlicingScenario.rsu[0].appl meanTxPacketSize_41_703 1510
scalar SlicingScenario.rsu[0].appl meanRxThroughput_41_703 0
scalar SlicingScenario.rsu[0].appl meanTxThroughput_41_703 12125.243445693
scalar SlicingScenario.rsu[0].appl rxTimeOfService_41_703 0
scalar SlicingScenario.rsu[0].appl txTimeOfService_41_703 267
scalar SlicingScenario.rsu[0].appl txPackets_41_721 262
scalar SlicingScenario.rsu[0].appl rxPackets_41_721 0
scalar SlicingScenario.rsu[0].appl rxNeighborPackets_41_721 0
scalar SlicingScenario.rsu[0].appl meanDelay_41_721 0
scalar SlicingScenario.rsu[0].appl meanJitter_41_721 0
scalar SlicingScenario.rsu[0].appl meanRxPacketSize_41_721 0
scalar SlicingScenario.rsu[0].appl meanTxPacketSize_41_721 1510
scalar SlicingScenario.rsu[0].appl meanRxThroughput_41_721 0
scalar SlicingScenario.rsu[0].appl meanTxThroughput_41_721 12126.283524904
scalar SlicingScenario.rsu[0].appl rxTimeOfService_41_721 0
scalar SlicingScenario.rsu[0].appl txTimeOfService_41_721 261
scalar SlicingScenario.rsu[0].appl txPackets_41_763 248
scalar SlicingScenario.rsu[0].appl rxPackets_41_763 0
scalar SlicingScenario.rsu[0].appl rxNeighborPackets_41_763 0
scalar SlicingScenario.rsu[0].appl meanDelay_41_763 0
scalar SlicingScenario.rsu[0].appl meanJitter_41_763 0
scalar SlicingScenario.rsu[0].appl meanRxPacketSize_41_763 0
scalar SlicingScenario.rsu[0].appl meanTxPacketSize_41_763 1510
scalar SlicingScenario.rsu[0].appl meanRxThroughput_41_763 0
scalar SlicingScenario.rsu[0].appl meanTxThroughput_41_763 12128.906882591
scalar SlicingScenario.rsu[0].appl rxTimeOfService_41_763 0
scalar SlicingScenario.rsu[0].appl txTimeOfService_41_763 247
scalar SlicingScenario.rsu[0].appl txPackets_41_787 240
scalar SlicingScenario.rsu[0].appl rxPackets_41_787 0
scalar SlicingScenario.rsu[0].appl rxNeighborPackets_41_787 0
scalar SlicingScenario.rsu[0].appl meanDelay_41_787 0
scalar SlicingScenario.rsu[0].appl meanJitter_41_787 0
scalar SlicingScenario.rsu[0].appl meanRxPacketSize_41_787 0
scalar SlicingScenario.rsu[0].appl meanTxPacketSize_41_787 1510
scalar SlicingScenario.rsu[0].appl meanRxThroughput_41_787 0
scalar SlicingScenario.rsu[0].appl meanTxThroughput_41_787 12130.543933054
scalar SlicingScenario.rsu[0].appl rxTimeOfService_41_787 0
scalar SlicingScenario.rsu[0].appl txTimeOfService_41_787 239
scalar SlicingScenario.rsu[0].appl txPackets_41_793 238
scalar SlicingScenario.rsu[0].appl rxPackets_41_793 0
scalar SlicingScenario.rsu[0].appl rxNeighborPackets_41_793 0
scalar SlicingScenario.rsu[0].appl meanDelay_41_793 0
scalar SlicingScenario.rsu[0].appl meanJitter_41_793 0
scalar SlicingScenario.rsu[0].appl meanRxPacketSize_41_793 0
scalar SlicingScenario.rsu[0].appl meanTxPacketSize_41_793 1510
scalar SlicingScenario.rsu[0].appl meanRxThroughput_41_793 0
scalar SlicingScenario.rsu[0].appl meanTxThroughput_41_793 12130.970464135
scalar SlicingScenario.rsu[0].appl rxTimeOfService_41_793 0
scalar SlicingScenario.rsu[0].appl txTimeOfService_41_793 237
scalar SlicingScenario.rsu[0].appl txPackets_41_805 234
scalar SlicingScenario.rsu[0].appl rxPackets_41_805 0
scalar SlicingScenario.rsu[0].appl rxNeighborPackets_41_805 0
scalar SlicingScenario.rsu[0].appl meanDelay_41_805 0
scalar SlicingScenario.rsu[0].appl meanJitter_41_805 0
scalar SlicingScenario.rsu[0].appl meanRxPacketSize_41_805 0
scalar SlicingScenario.rsu[0].appl meanTxPacketSize_41_805 1510
scalar SlicingScenario.rsu[0].appl meanRxThroughput_41_805 0
scalar SlicingScenario.rsu[0].appl meanTxThroughput_41_805 12131.845493562
scalar SlicingScenario.rsu[0].appl rxTimeOfService_41_805 0
scalar SlicingScenario.rsu[0].appl txTimeOfService_41_805 233
scalar SlicingScenario.rsu[0].appl txPackets_41_823 228
scalar SlicingScenario.rsu[0].appl rxPackets_41_823 0
scalar SlicingScenario.rsu[0].appl rxNeighborPackets_41_823 0
scalar SlicingScenario.rsu[0].appl meanDelay_41_823 0
scalar SlicingScenario.rsu[0].appl meanJitter_41_823 0
scalar SlicingScenario.rsu[0].appl meanRxPacketSize_41_823 0
scalar SlicingScenario.rsu[0].appl meanTxPacketSize_41_823 1510
scalar SlicingScenario.rsu[0].appl meanRxThroughput_41_823 0
scalar SlicingScenario.rsu[0].appl meanTxThroughput_41_823 12133.215859031
scalar SlicingScenario.rsu[0].appl rxTimeOfService_41_823 0
scalar SlicingScenario.rsu[0].appl txTimeOfService_41_823 227
scalar SlicingScenario.rsu[0].appl txPackets_41_829 226
scalar SlicingScenario.rsu[0].appl rxPackets_41_829 0
scalar SlicingScenario.rsu[0].appl rxNeighborPackets_41_829 0
scalar SlicingScenario.rsu[0].appl meanDelay_41_829 0
scalar SlicingScenario.rsu[0].appl meanJitter_41_829 0
scalar SlicingScenario.rsu[0].appl meanRxPacketSize_41_829 0
scalar SlicingScenario.rsu[0].appl meanTxPacketSize_41_829 1510
scalar SlicingScenario.rsu[0].appl meanRxThroughput_41_829 0
scalar SlicingScenario.rsu[0].appl meanTxThroughput_41_829 12133.688888889
scalar SlicingScenario.rsu[0].appl rxTimeOfService_41_829 0
scalar SlicingScenario.rsu[0].appl txTimeOfService_41_829 225
scalar SlicingScenario.rsu[0].appl txPackets_41_835 224
scalar SlicingScenario.rsu[0].appl rxPackets_41_835 0
scalar SlicingScenario.rsu[0].appl rxNeighborPackets_41_835 0
scalar SlicingScenario.rsu[0].appl meanDelay_41_835 0
scalar SlicingScenario.rsu[0].appl meanJitter_41_835 0
scalar SlicingScenario.rsu[0].appl meanRxPacketSize_41_835 0
scalar SlicingScenario.rsu[0].appl meanTxPacketSize_41_835 1510
scalar SlicingScenario.rsu[0].appl meanRxThroughput_41_835 0
scalar SlicingScenario.rsu[0].appl meanTxThroughput_41_835 12134.170403587
scalar SlicingScenario.rsu[0].appl rxTimeOfService_41_835 0
scalar SlicingScenario.rsu[0].appl txTimeOfService_41_835 223
scalar SlicingScenario.rsu[0].appl txPackets_41_841 222
scalar SlicingScenario.rsu[0].appl rxPackets_41_841 0
scalar SlicingScenario.rsu[0].appl rxNeighborPackets_41_841 0
scalar SlicingScenario.rsu[0].appl meanDelay_41_841 0
scalar SlicingScenario.rsu[0].appl meanJitter_41_841 0
scalar SlicingScenario.rsu[0].appl meanRxPacketSize_41_841 0
scalar SlicingScenario.rsu[0].appl meanTxPacketSize_41_841 1510
scalar SlicingScenario.rsu[0].appl meanRxThroughput_41_841 0
scalar SlicingScenario.rsu[0].appl meanTxThroughput_41_841 12134.660633484
scalar SlicingScenario.rsu[0].appl rxTimeOfService_41_841 0
scalar SlicingScenario.rsu[0].appl txTimeOfService_41_841 221
scalar SlicingScenario.rsu[0].appl txPackets_41_853 218
scalar SlicingScenario.rsu[0].appl rxPackets_41_853 0
scalar SlicingScenario.rsu[0].appl rxNeighborPackets_41_853 0
scalar SlicingScenario.rsu[0].appl meanDelay_41_853 0
scalar SlicingScenario.rsu[0].appl meanJitter_41_853 0
scalar SlicingScenario.rsu[0].appl meanRxPacketSize_41_853 0
scalar SlicingScenario.rsu[0].appl meanTxPacketSize_41_853 1510
scalar SlicingScenario.rsu[0].appl meanRxThroughput_41_853 0
scalar SlicingScenario.rsu[0].appl meanTxThroughput_41_853 12135.668202765
scalar SlicingScenario.rsu[0].appl rxTimeOfService_41_853 0
scalar SlicingScenario.rsu[0].appl txTimeOfService_41_853 217
scalar SlicingScenario.rsu[0].appl txPackets_41_859 216
scalar SlicingScenario.rsu[0].appl rxPackets_41_859 0
scalar SlicingScenario.rsu[0].appl rxNeighborPackets_41_859 0
scalar SlicingScenario.rsu[0].appl meanDelay_41_859 0
scalar SlicingScenario.rsu[0].appl meanJitter_41_859 0
scalar SlicingScenario.rsu[0].appl meanRxPacketSize_41_859 0
scalar SlicingScenario.rsu[0].appl meanTxPacketSize_41_859 1510
scalar SlicingScenario.rsu[0].appl meanRxThroughput_41_859 0
scalar SlicingScenario.rsu[0].appl meanTxThroughput_41_859 12136.186046512
scalar SlicingScenario.rsu[0].appl rxTimeOfService_41_859 0
scalar SlicingScenario.rsu[0].appl txTimeOfService_41_859 215
scalar SlicingScenario.rsu[0].appl txPackets_41_877 210
scalar SlicingScenario.rsu[0].appl rxPackets_41_877 0
scalar SlicingScenario.rsu[0].appl rxNeighborPackets_41_877 0
scalar SlicingScenario.rsu[0].appl meanDelay_41_877 0
scalar SlicingScenario.rsu[0].appl meanJitter_41_877 0
scalar SlicingScenario.rsu[0].appl meanRxPacketSize_41_877 0
scalar SlicingScenario.rsu[0].appl meanTxPacketSize_41_877 1510
scalar SlicingScenario.rsu[0].appl meanRxThroughput_41_877 0
scalar SlicingScenario.rsu[0].appl meanTxThroughput_41_877 12137.799043062
scalar SlicingScenario.rsu[0].appl rxTimeOfService_41_877 0
scalar SlicingScenario.rsu[0].appl txTimeOfService_41_877 209
scalar SlicingScenario.rsu[0].appl txPackets_41_883 208
scalar SlicingScenario.rsu[0].appl rxPackets_41_883 0
scalar SlicingScenario.rsu[0].appl rxNeighborPackets_41_883 0
scalar SlicingScenario.rsu[0].appl meanDelay_41_883 0
scalar SlicingScenario.rsu[0].appl meanJitter_41_883 0
scalar SlicingScenario.rsu[0].appl meanRxPacketSize_41_883 0
scalar SlicingScenario.rsu[0].appl meanTxPacketSize_41_883 1510
scalar SlicingScenario.rsu[0].appl meanRxThroughput_41_883 0
scalar SlicingScenario.rsu[0].appl meanTxThroughput_41_883 12138.357487923
scalar SlicingScenario.rsu[0].appl rxTimeOfService_41_883 0
scalar SlicingScenario.rsu[0].appl txTimeOfService_41_883 207
scalar SlicingScenario.rsu[0].appl txPackets_41_895 204
scalar SlicingScenario.rsu[0].appl rxPackets_41_895 0
scalar SlicingScenario.rsu[0].appl rxNeighborPackets_41_895 0
scalar SlicingScenario.rsu[0].appl meanDelay_41_895 0
scalar SlicingScenario.rsu[0].appl meanJitter_41_895 0
scalar SlicingScenario.rsu[0].appl meanRxPacketSize_41_895 0
scalar SlicingScenario.rsu[0].appl meanTxPacketSize_41_895 1510
scalar SlicingScenario.rsu[0].appl meanRxThroughput_41_895 0
scalar SlicingScenario.rsu[0].appl meanTxThroughput_41_895 12139.507389163
scalar SlicingScenario.rsu[0].appl rxTimeOfService_41_895 0
scalar SlicingScenario.rsu[0].appl txTimeOfService_41_895 203
scalar SlicingScenario.rsu[0].appl txPackets_41_901 202
scalar SlicingScenario.rsu[0].appl rxPackets_41_901 0
scalar SlicingScenario.rsu[0].appl rxNeighborPackets_41_901 0
scalar SlicingScenario.rsu[0].appl meanDelay_41_901 0
scalar SlicingScenario.rsu[0].appl meanJitter_41_901 0
scalar SlicingScenario.rsu[0].appl meanRxPacketSize_41_901 0
scalar SlicingScenario.rsu[0].appl meanTxPacketSize_41_901 1510
scalar SlicingScenario.rsu[0].appl meanRxThroughput_41_901 0
scalar SlicingScenario.rsu[0].appl meanTxThroughput_41_901 12140.099502488
scalar SlicingScenario.rsu[0].appl rxTimeOfService_41_901 0
scalar SlicingScenario.rsu[0].appl txTimeOfService_41_901 201
scalar SlicingScenario.rsu[0].appl txPackets_41_907 200
scalar SlicingScenario.rsu[0].appl rxPackets_41_907 0
scalar SlicingScenario.rsu[0].appl rxNeighborPackets_41_907 0
scalar SlicingScenario.rsu[0].appl meanDelay_41_907 0
scalar SlicingScenario.rsu[0].appl meanJitter_41_907 0
scalar SlicingScenario.rsu[0].appl meanRxPacketSize_41_907 0
scalar SlicingScenario.rsu[0].appl meanTxPacketSize_41_907 1510
scalar SlicingScenario.rsu[0].appl meanRxThroughput_41_907 0
scalar SlicingScenario.rsu[0].appl meanTxThroughput_41_907 12140.703517588
scalar SlicingScenario.rsu[0].appl rxTimeOfService_41_907 0
scalar SlicingScenario.rsu[0].appl txTimeOfService_41_907 199
scalar SlicingScenario.rsu[0].appl txPackets_41_913 198
scalar SlicingScenario.rsu[0].appl rxPackets_41_913 0
scalar SlicingScenario.rsu[0].appl rxNeighborPackets_41_913 0
scalar SlicingScenario.rsu[0].appl meanDelay_41_913 0
scalar SlicingScenario.rsu[0].appl meanJitter_41_913 0
scalar SlicingScenario.rsu[0].appl meanRxPacketSize_41_913 0
scalar SlicingScenario.rsu[0].appl meanTxPacketSize_41_913 1510
scalar SlicingScenario.rsu[0].appl meanRxThroughput_41_913 0
scalar SlicingScenario.rsu[0].appl meanTxThroughput_41_913 12141.319796954
scalar SlicingScenario.rsu[0].appl rxTimeOfService_41_913 0
scalar SlicingScenario.rsu[0].appl txTimeOfService_41_913 197
scalar SlicingScenario.rsu[0].appl txPackets_41_919 196
scalar SlicingScenario.rsu[0].appl rxPackets_41_919 0
scalar SlicingScenario.rsu[0].appl rxNeighborPackets_41_919 0
scalar SlicingScenario.rsu[0].appl meanDelay_41_919 0
scalar SlicingScenario.rsu[0].appl meanJitter_41_919 0
scalar SlicingScenario.rsu[0].appl meanRxPacketSize_41_919 0
scalar SlicingScenario.rsu[0].appl meanTxPacketSize_41_919 1510
scalar SlicingScenario.rsu[0].appl meanRxThroughput_41_919 0
scalar SlicingScenario.rsu[0].appl meanTxThroughput_41_919 12141.948717949
scalar SlicingScenario.rsu[0].appl rxTimeOfService_41_919 0
scalar SlicingScenario.rsu[0].appl txTimeOfService_41_919 195
scalar SlicingScenario.rsu[0].appl txPackets_41_925 194
scalar SlicingScenario.rsu[0].appl rxPackets_41_925 0
scalar SlicingScenario.rsu[0].appl rxNeighborPackets_41_925 0
scalar SlicingScenario.rsu[0].appl meanDelay_41_925 0
scalar SlicingScenario.rsu[0].appl meanJitter_41_925 0
scalar SlicingScenario.rsu[0].appl meanRxPacketSize_41_925 0
scalar SlicingScenario.rsu[0].appl meanTxPacketSize_41_925 1510
scalar SlicingScenario.rsu[0].appl meanRxThroughput_41_925 0
scalar SlicingScenario.rsu[0].appl meanTxThroughput_41_925 12142.590673575
scalar SlicingScenario.rsu[0].appl rxTimeOfService_41_925 0
scalar SlicingScenario.rsu[0].appl txTimeOfService_41_925 193
scalar SlicingScenario.rsu[0].appl txPackets_41_931 192
scalar SlicingScenario.rsu[0].appl rxPackets_41_931 0
scalar SlicingScenario.rsu[0].appl rxNeighborPackets_41_931 0
scalar SlicingScenario.rsu[0].appl meanDelay_41_931 0
scalar SlicingScenario.rsu[0].appl meanJitter_41_931 0
scalar SlicingScenario.rsu[0].appl meanRxPacketSize_41_931 0
scalar SlicingScenario.rsu[0].appl meanTxPacketSize_41_931 1510
scalar SlicingScenario.rsu[0].appl meanRxThroughput_41_931 0
scalar SlicingScenario.rsu[0].appl meanTxThroughput_41_931 12143.246073298
scalar SlicingScenario.rsu[0].appl rxTimeOfService_41_931 0
scalar SlicingScenario.rsu[0].appl txTimeOfService_41_931 191
scalar SlicingScenario.rsu[0].nic.phy80211p busyTime 0
scalar SlicingScenario.rsu[0].nic.phy80211p ncollisions 0
scalar SlicingScenario.rsu[0].nic.phy80211p UnderSensitivityPackets 0
scalar SlicingScenario.rsu[0].nic.mac1609_4 ReceivedUnicastPackets_CCH 0
scalar SlicingScenario.rsu[0].nic.mac1609_4 ReceivedBroadcasts_CCH 0
scalar SlicingScenario.rsu[0].nic.mac1609_4 SentPackets_CCH 0
scalar SlicingScenario.rsu[0].nic.mac1609_4 SentAcknowledgements_CCH 0
scalar SlicingScenario.rsu[0].nic.mac1609_4 SNIRLostPackets_CCH 0
scalar SlicingScenario.rsu[0].nic.mac1609_4 RXTXLostPackets_CCH 0
scalar SlicingScenario.rsu[0].nic.mac1609_4 TotalLostPackets_CCH 0
scalar SlicingScenario.rsu[0].nic.mac1609_4 DroppedPacketsInMac_CCH 0
scalar SlicingScenario.rsu[0].nic.mac1609_4 TooLittleTime_CCH 0
scalar SlicingScenario.rsu[0].nic.mac1609_4 TimesIntoBackoff_CCH 0
scalar SlicingScenario.rsu[0].nic.mac1609_4 SlotsBackoff_CCH 0
scalar SlicingScenario.rsu[0].nic.mac1609_4 NumInternalContention_CCH 0
scalar SlicingScenario.rsu[0].nic.mac1609_4 RemainingPacketsInEDCA_CCH 0
scalar SlicingScenario.rsu[0].nic.mac1609_4 totalBusyTime_CCH 0
scalar SlicingScenario.rsu[0].nic.mac1609_4 ReceivedUnicastPackets_SCH 0
scalar SlicingScenario.rsu[0].nic.mac1609_4 ReceivedBroadcasts_SCH 0
scalar SlicingScenario.rsu[0].nic.mac1609_4 SentPackets_SCH 54220
scalar SlicingScenario.rsu[0].nic.mac1609_4 SentAcknowledgements_SCH 0
scalar SlicingScenario.rsu[0].nic.mac1609_4 SNIRLostPackets_SCH 0
scalar SlicingScenario.rsu[0].nic.mac1609_4 RXTXLostPackets_SCH 0
scalar SlicingScenario.rsu[0].nic.mac1609_4 TotalLostPackets_SCH 0
scalar SlicingScenario.rsu[0].nic.mac1609_4 DroppedPacketsInMac_SCH 0
scalar SlicingScenario.rsu[0].nic.mac1609_4 TooLittleTime_SCH 39047
scalar SlicingScenario.rsu[0].nic.mac1609_4 TimesIntoBackoff_SCH 57719
scalar SlicingScenario.rsu[0].nic.mac1609_4 SlotsBackoff_SCH 190086
scalar SlicingScenario.rsu[0].nic.mac1609_4 NumInternalContention_SCH 0
scalar SlicingScenario.rsu[0].nic.mac1609_4 RemainingPacketsInEDCA_SCH 1
scalar SlicingScenario.rsu[0].nic.mac1609_4 totalBusyTime_SCH 111.9643

