version 2
run General-269-20190223-14:35:18-12453
attr configname General
attr datetime 20190223-14:35:18
attr experiment General
attr inifile omnetpp.ini
attr iterationvars "$vehicles=80, $msgSizeA=1500B, $serviceMsgInterval=3s"
attr iterationvarsf vehicles=80,msgSizeA=1500B,serviceMsgInterval=3s-
attr measurement "$vehicles=80, $msgSizeA=1500B, $serviceMsgInterval=3s"
attr network com.liborio.slicing.SlicingScenario
attr processid 12453
attr repetition 9
attr replication #9
attr resultdir results
attr runnumber 269
attr seedset 9
itervar msgSizeA 1500B
itervar serviceMsgInterval 3s
itervar vehicles 80
param **.debug false
param **.coreDebug false
param *.playgroundSizeX 1200m
param *.playgroundSizeY 1200m
param *.playgroundSizeZ 50m
param *.annotations.draw true
param *.manager.updateInterval 1s
param *.manager.host "\"localhost\""
param *.manager.port 9999
param *.manager.autoShutdown true
param *.manager.launchConfig "xmldoc(\"highway-\"+string(80)+\".launchd.xml\")"
param *.connectionManager.sendDirect true
param *.connectionManager.maxInterfDist 2600m
param *.connectionManager.drawMaxIntfDist false
param *.rsu[*].applType "\"RSUApp\""
param *.rsu[*].appl.headerLength "80 bit"
param *.rsu[*].appl.sendBeacons false
param *.rsu[*].appl.dataOnSch true
param *.rsu[*].appl.beaconInterval 1s
param *.rsu[*].appl.beaconUserPriority 7
param *.rsu[*].appl.dataUserPriority 5
param *.rsu[*].appl.entMsgADataLengthBytes 1500B
param *.rsu[*].appl.entMsgAUserPriority 4
param *.rsu[*].appl.entMsgAInterval 3s
param *.rsu[*].appl.entMsgBDataLengthBytes 1500B
param *.rsu[*].appl.entMsgBUserPriority 4
param *.rsu[*].appl.entMsgBInterval 3s
param *.rsu[*].nic.mac1609_4.useServiceChannel true
param *.rsu[*].nic.mac1609_4.txPower 20mW
param *.rsu[*].nic.mac1609_4.bitrate 6Mbps
param *.rsu[*].nic.phy80211p.sensitivity -90.00dBm
param *.rsu[0].mobility.x 515.0
param *.rsu[0].mobility.y 25.0
param *.rsu[0].mobility.z 3
param *.node[*].applType "\"VehApp\""
param *.node[*].appl.headerLength "80 bit"
param *.node[*].appl.sendBeacons false
param *.node[*].appl.dataOnSch true
param *.node[*].appl.beaconInterval 1s
param *.node[*].appl.wsaInterval 1s
param *.node[*].appl.entMsgADataLengthBits 1500B
param *.node[*].appl.entMsgAUserPriority 4
param *.node[*].appl.entMsgAInterval 3s
param *.node[*].appl.entMsgBDataLengthBits 1500B
param *.node[*].appl.entMsgBUserPriority 4
param *.node[*].appl.entMsgBInterval 3s
param *.node[*].nic.mac1609_4.useServiceChannel true
param *.node[*].nic.mac1609_4.txPower 20mW
param *.node[*].nic.mac1609_4.bitrate 6Mbps
param *.node[*].nic.phy80211p.sensitivity -90.00dBm
param *.node[*].veinsmobilityType.debug true
param *.node[*].veinsmobility.x 0
param *.node[*].veinsmobility.y 0
param *.node[*].veinsmobility.z 1.895
param *.**.nic.phy80211p.useThermalNoise true
param *.**.nic.phy80211p.thermalNoise -110dBm
param *.**.nic.phy80211p.decider "xmldoc(\"config.xml\")"
param *.**.nic.phy80211p.analogueModels "xmldoc(\"config.xml\")"
param *.**.nic.phy80211p.usePropagationDelay true
param *.**.nic.phy80211p.antenna "xmldoc(\"antenna.xml\", \"/root/Antenna[@id='monopole']\")"
param *.**.nic.phy80211p.collectCollisionStatistics true
param *.**.nic.phy80211p.allowTxDuringRx false

scalar SlicingScenario.node[0].appl txPackets_13 0
scalar SlicingScenario.node[0].appl rxPackets_13 0
scalar SlicingScenario.node[0].appl rxNeighborPackets_13 0
scalar SlicingScenario.node[0].appl meanDelay_13 0
scalar SlicingScenario.node[0].appl meanJitter_13 0
scalar SlicingScenario.node[0].appl meanRxPacketSize_13 0
scalar SlicingScenario.node[0].appl meanTxPacketSize_13 0
scalar SlicingScenario.node[0].appl meanRxThroughput_13 0
scalar SlicingScenario.node[0].appl meanTxThroughput_13 0
scalar SlicingScenario.node[0].appl rxTimeOfService_13 0
scalar SlicingScenario.node[0].appl txTimeOfService_13 0
scalar SlicingScenario.node[0].appl txPackets_40_13 0
scalar SlicingScenario.node[0].appl rxPackets_40_13 28
scalar SlicingScenario.node[0].appl rxNeighborPackets_40_13 278
scalar SlicingScenario.node[0].appl meanDelay_40_13 0.058089300748
scalar SlicingScenario.node[0].appl meanJitter_40_13 0.002185260252
scalar SlicingScenario.node[0].appl meanRxPacketSize_40_13 1510
scalar SlicingScenario.node[0].appl meanTxPacketSize_40_13 0
scalar SlicingScenario.node[0].appl meanRxThroughput_40_13 4175.7997912244
scalar SlicingScenario.node[0].appl meanTxThroughput_40_13 0
scalar SlicingScenario.node[0].appl rxTimeOfService_40_13 81.000051944737
scalar SlicingScenario.node[0].appl txTimeOfService_40_13 0
scalar SlicingScenario.node[0].nic.phy80211p busyTime 0.014358260869565
scalar SlicingScenario.node[0].nic.phy80211p ncollisions 0
scalar SlicingScenario.node[0].nic.phy80211p UnderSensitivityPackets 79
scalar SlicingScenario.node[0].nic.mac1609_4 ReceivedUnicastPackets_CCH 0
scalar SlicingScenario.node[0].nic.mac1609_4 ReceivedBroadcasts_CCH 0
scalar SlicingScenario.node[0].nic.mac1609_4 SentPackets_CCH 0
scalar SlicingScenario.node[0].nic.mac1609_4 SentAcknowledgements_CCH 0
scalar SlicingScenario.node[0].nic.mac1609_4 SNIRLostPackets_CCH 0
scalar SlicingScenario.node[0].nic.mac1609_4 RXTXLostPackets_CCH 0
scalar SlicingScenario.node[0].nic.mac1609_4 TotalLostPackets_CCH 0
scalar SlicingScenario.node[0].nic.mac1609_4 DroppedPacketsInMac_CCH 0
scalar SlicingScenario.node[0].nic.mac1609_4 TooLittleTime_CCH 0
scalar SlicingScenario.node[0].nic.mac1609_4 TimesIntoBackoff_CCH 0
scalar SlicingScenario.node[0].nic.mac1609_4 SlotsBackoff_CCH 0
scalar SlicingScenario.node[0].nic.mac1609_4 NumInternalContention_CCH 0
scalar SlicingScenario.node[0].nic.mac1609_4 RemainingPacketsInEDCA_CCH 0
scalar SlicingScenario.node[0].nic.mac1609_4 totalBusyTime_CCH 0
scalar SlicingScenario.node[0].nic.mac1609_4 ReceivedUnicastPackets_SCH 0
scalar SlicingScenario.node[0].nic.mac1609_4 ReceivedBroadcasts_SCH 640
scalar SlicingScenario.node[0].nic.mac1609_4 SentPackets_SCH 0
scalar SlicingScenario.node[0].nic.mac1609_4 SentAcknowledgements_SCH 0
scalar SlicingScenario.node[0].nic.mac1609_4 SNIRLostPackets_SCH 0
scalar SlicingScenario.node[0].nic.mac1609_4 RXTXLostPackets_SCH 0
scalar SlicingScenario.node[0].nic.mac1609_4 TotalLostPackets_SCH 0
scalar SlicingScenario.node[0].nic.mac1609_4 DroppedPacketsInMac_SCH 0
scalar SlicingScenario.node[0].nic.mac1609_4 TooLittleTime_SCH 0
scalar SlicingScenario.node[0].nic.mac1609_4 TimesIntoBackoff_SCH 0
scalar SlicingScenario.node[0].nic.mac1609_4 SlotsBackoff_SCH 0
scalar SlicingScenario.node[0].nic.mac1609_4 NumInternalContention_SCH 0
scalar SlicingScenario.node[0].nic.mac1609_4 RemainingPacketsInEDCA_SCH 0
scalar SlicingScenario.node[0].nic.mac1609_4 totalBusyTime_SCH 1.32096
scalar SlicingScenario.node[0].veinsmobility startTime 1
scalar SlicingScenario.node[0].veinsmobility totalTime 91
scalar SlicingScenario.node[0].veinsmobility stopTime 93
scalar SlicingScenario.node[0].veinsmobility minSpeed 10.613107057768
scalar SlicingScenario.node[0].veinsmobility maxSpeed 11.104320218218
scalar SlicingScenario.node[0].veinsmobility totalDistance 978.16188548268
scalar SlicingScenario.node[0].veinsmobility totalCO2Emission 157.99579935802
scalar SlicingScenario.node[1].appl txPackets_19 0
scalar SlicingScenario.node[1].appl rxPackets_19 0
scalar SlicingScenario.node[1].appl rxNeighborPackets_19 0
scalar SlicingScenario.node[1].appl meanDelay_19 0
scalar SlicingScenario.node[1].appl meanJitter_19 0
scalar SlicingScenario.node[1].appl meanRxPacketSize_19 0
scalar SlicingScenario.node[1].appl meanTxPacketSize_19 0
scalar SlicingScenario.node[1].appl meanRxThroughput_19 0
scalar SlicingScenario.node[1].appl meanTxThroughput_19 0
scalar SlicingScenario.node[1].appl rxTimeOfService_19 0
scalar SlicingScenario.node[1].appl txTimeOfService_19 0
scalar SlicingScenario.node[1].appl txPackets_41_19 0
scalar SlicingScenario.node[1].appl rxPackets_41_19 28
scalar SlicingScenario.node[1].appl rxNeighborPackets_41_19 322
scalar SlicingScenario.node[1].appl meanDelay_41_19 0.002078684502
scalar SlicingScenario.node[1].appl meanJitter_41_19 7.7118181e-05
scalar SlicingScenario.node[1].appl meanRxPacketSize_41_19 1510
scalar SlicingScenario.node[1].appl meanTxPacketSize_41_19 0
scalar SlicingScenario.node[1].appl meanRxThroughput_41_19 4175.8024707742
scalar SlicingScenario.node[1].appl meanTxThroughput_41_19 0
scalar SlicingScenario.node[1].appl rxTimeOfService_41_19 80.99999996822
scalar SlicingScenario.node[1].appl txTimeOfService_41_19 0
scalar SlicingScenario.node[1].nic.phy80211p busyTime 0.014847483870968
scalar SlicingScenario.node[1].nic.phy80211p ncollisions 0
scalar SlicingScenario.node[1].nic.phy80211p UnderSensitivityPackets 82
scalar SlicingScenario.node[1].nic.mac1609_4 ReceivedUnicastPackets_CCH 0
scalar SlicingScenario.node[1].nic.mac1609_4 ReceivedBroadcasts_CCH 0
scalar SlicingScenario.node[1].nic.mac1609_4 SentPackets_CCH 0
scalar SlicingScenario.node[1].nic.mac1609_4 SentAcknowledgements_CCH 0
scalar SlicingScenario.node[1].nic.mac1609_4 SNIRLostPackets_CCH 0
scalar SlicingScenario.node[1].nic.mac1609_4 RXTXLostPackets_CCH 0
scalar SlicingScenario.node[1].nic.mac1609_4 TotalLostPackets_CCH 0
scalar SlicingScenario.node[1].nic.mac1609_4 DroppedPacketsInMac_CCH 0
scalar SlicingScenario.node[1].nic.mac1609_4 TooLittleTime_CCH 0
scalar SlicingScenario.node[1].nic.mac1609_4 TimesIntoBackoff_CCH 0
scalar SlicingScenario.node[1].nic.mac1609_4 SlotsBackoff_CCH 0
scalar SlicingScenario.node[1].nic.mac1609_4 NumInternalContention_CCH 0
scalar SlicingScenario.node[1].nic.mac1609_4 RemainingPacketsInEDCA_CCH 0
scalar SlicingScenario.node[1].nic.mac1609_4 totalBusyTime_CCH 0
scalar SlicingScenario.node[1].nic.mac1609_4 ReceivedUnicastPackets_SCH 0
scalar SlicingScenario.node[1].nic.mac1609_4 ReceivedBroadcasts_SCH 669
scalar SlicingScenario.node[1].nic.mac1609_4 SentPackets_SCH 0
scalar SlicingScenario.node[1].nic.mac1609_4 SentAcknowledgements_SCH 0
scalar SlicingScenario.node[1].nic.mac1609_4 SNIRLostPackets_SCH 0
scalar SlicingScenario.node[1].nic.mac1609_4 RXTXLostPackets_SCH 0
scalar SlicingScenario.node[1].nic.mac1609_4 TotalLostPackets_SCH 0
scalar SlicingScenario.node[1].nic.mac1609_4 DroppedPacketsInMac_SCH 0
scalar SlicingScenario.node[1].nic.mac1609_4 TooLittleTime_SCH 0
scalar SlicingScenario.node[1].nic.mac1609_4 TimesIntoBackoff_SCH 0
scalar SlicingScenario.node[1].nic.mac1609_4 SlotsBackoff_SCH 0
scalar SlicingScenario.node[1].nic.mac1609_4 NumInternalContention_SCH 0
scalar SlicingScenario.node[1].nic.mac1609_4 RemainingPacketsInEDCA_SCH 0
scalar SlicingScenario.node[1].nic.mac1609_4 totalBusyTime_SCH 1.380816
scalar SlicingScenario.node[1].veinsmobility startTime 2
scalar SlicingScenario.node[1].veinsmobility totalTime 92
scalar SlicingScenario.node[1].veinsmobility stopTime 95
scalar SlicingScenario.node[1].veinsmobility minSpeed 8.1327114833267
scalar SlicingScenario.node[1].veinsmobility maxSpeed 11.106401648154
scalar SlicingScenario.node[1].veinsmobility totalDistance 980.21751624862
scalar SlicingScenario.node[1].veinsmobility totalCO2Emission 167.51631238552
scalar SlicingScenario.node[3].appl txPackets_31 0
scalar SlicingScenario.node[3].appl rxPackets_31 0
scalar SlicingScenario.node[3].appl rxNeighborPackets_31 0
scalar SlicingScenario.node[3].appl meanDelay_31 0
scalar SlicingScenario.node[3].appl meanJitter_31 0
scalar SlicingScenario.node[3].appl meanRxPacketSize_31 0
scalar SlicingScenario.node[3].appl meanTxPacketSize_31 0
scalar SlicingScenario.node[3].appl meanRxThroughput_31 0
scalar SlicingScenario.node[3].appl meanTxThroughput_31 0
scalar SlicingScenario.node[3].appl rxTimeOfService_31 0
scalar SlicingScenario.node[3].appl txTimeOfService_31 0
scalar SlicingScenario.node[3].appl txPackets_41_31 0
scalar SlicingScenario.node[3].appl rxPackets_41_31 28
scalar SlicingScenario.node[3].appl rxNeighborPackets_41_31 329
scalar SlicingScenario.node[3].appl meanDelay_41_31 0.002073161374
scalar SlicingScenario.node[3].appl meanJitter_41_31 7.6915149e-05
scalar SlicingScenario.node[3].appl meanRxPacketSize_41_31 1510
scalar SlicingScenario.node[3].appl meanTxPacketSize_41_31 0
scalar SlicingScenario.node[3].appl meanRxThroughput_41_31 4175.8024714349
scalar SlicingScenario.node[3].appl meanTxThroughput_41_31 0
scalar SlicingScenario.node[3].appl rxTimeOfService_41_31 80.999999955403
scalar SlicingScenario.node[3].appl txTimeOfService_41_31 0
scalar SlicingScenario.node[3].nic.phy80211p busyTime 0.01530052173913
scalar SlicingScenario.node[3].nic.phy80211p ncollisions 0
scalar SlicingScenario.node[3].nic.phy80211p UnderSensitivityPackets 83
scalar SlicingScenario.node[3].nic.mac1609_4 ReceivedUnicastPackets_CCH 0
scalar SlicingScenario.node[3].nic.mac1609_4 ReceivedBroadcasts_CCH 0
scalar SlicingScenario.node[3].nic.mac1609_4 SentPackets_CCH 0
scalar SlicingScenario.node[3].nic.mac1609_4 SentAcknowledgements_CCH 0
scalar SlicingScenario.node[3].nic.mac1609_4 SNIRLostPackets_CCH 0
scalar SlicingScenario.node[3].nic.mac1609_4 RXTXLostPackets_CCH 0
scalar SlicingScenario.node[3].nic.mac1609_4 TotalLostPackets_CCH 0
scalar SlicingScenario.node[3].nic.mac1609_4 DroppedPacketsInMac_CCH 0
scalar SlicingScenario.node[3].nic.mac1609_4 TooLittleTime_CCH 0
scalar SlicingScenario.node[3].nic.mac1609_4 TimesIntoBackoff_CCH 0
scalar SlicingScenario.node[3].nic.mac1609_4 SlotsBackoff_CCH 0
scalar SlicingScenario.node[3].nic.mac1609_4 NumInternalContention_CCH 0
scalar SlicingScenario.node[3].nic.mac1609_4 RemainingPacketsInEDCA_CCH 0
scalar SlicingScenario.node[3].nic.mac1609_4 totalBusyTime_CCH 0
scalar SlicingScenario.node[3].nic.mac1609_4 ReceivedUnicastPackets_SCH 0
scalar SlicingScenario.node[3].nic.mac1609_4 ReceivedBroadcasts_SCH 682
scalar SlicingScenario.node[3].nic.mac1609_4 SentPackets_SCH 0
scalar SlicingScenario.node[3].nic.mac1609_4 SentAcknowledgements_SCH 0
scalar SlicingScenario.node[3].nic.mac1609_4 SNIRLostPackets_SCH 0
scalar SlicingScenario.node[3].nic.mac1609_4 RXTXLostPackets_SCH 0
scalar SlicingScenario.node[3].nic.mac1609_4 TotalLostPackets_SCH 0
scalar SlicingScenario.node[3].nic.mac1609_4 DroppedPacketsInMac_SCH 0
scalar SlicingScenario.node[3].nic.mac1609_4 TooLittleTime_SCH 0
scalar SlicingScenario.node[3].nic.mac1609_4 TimesIntoBackoff_SCH 0
scalar SlicingScenario.node[3].nic.mac1609_4 SlotsBackoff_SCH 0
scalar SlicingScenario.node[3].nic.mac1609_4 NumInternalContention_SCH 0
scalar SlicingScenario.node[3].nic.mac1609_4 RemainingPacketsInEDCA_SCH 0
scalar SlicingScenario.node[3].nic.mac1609_4 totalBusyTime_SCH 1.407648
scalar SlicingScenario.node[3].veinsmobility startTime 4
scalar SlicingScenario.node[3].veinsmobility totalTime 91
scalar SlicingScenario.node[3].veinsmobility stopTime 96
scalar SlicingScenario.node[3].veinsmobility minSpeed 10.613285374492
scalar SlicingScenario.node[3].veinsmobility maxSpeed 11.105794933056
scalar SlicingScenario.node[3].veinsmobility totalDistance 981.42405752006
scalar SlicingScenario.node[3].veinsmobility totalCO2Emission 159.32833927752
scalar SlicingScenario.node[4].appl txPackets_37 0
scalar SlicingScenario.node[4].appl rxPackets_37 0
scalar SlicingScenario.node[4].appl rxNeighborPackets_37 0
scalar SlicingScenario.node[4].appl meanDelay_37 0
scalar SlicingScenario.node[4].appl meanJitter_37 0
scalar SlicingScenario.node[4].appl meanRxPacketSize_37 0
scalar SlicingScenario.node[4].appl meanTxPacketSize_37 0
scalar SlicingScenario.node[4].appl meanRxThroughput_37 0
scalar SlicingScenario.node[4].appl meanTxThroughput_37 0
scalar SlicingScenario.node[4].appl rxTimeOfService_37 0
scalar SlicingScenario.node[4].appl txTimeOfService_37 0
scalar SlicingScenario.node[4].appl txPackets_41_37 0
scalar SlicingScenario.node[4].appl rxPackets_41_37 28
scalar SlicingScenario.node[4].appl rxNeighborPackets_41_37 337
scalar SlicingScenario.node[4].appl meanDelay_41_37 0.002071908772
scalar SlicingScenario.node[4].appl meanJitter_41_37 7.6866809e-05
scalar SlicingScenario.node[4].appl meanRxPacketSize_41_37 1510
scalar SlicingScenario.node[4].appl meanTxPacketSize_41_37 0
scalar SlicingScenario.node[4].appl meanRxThroughput_41_37 4175.8024681238
scalar SlicingScenario.node[4].appl meanTxThroughput_41_37 0
scalar SlicingScenario.node[4].appl rxTimeOfService_41_37 81.000000019631
scalar SlicingScenario.node[4].appl txTimeOfService_41_37 0
scalar SlicingScenario.node[4].nic.phy80211p busyTime 0.015637043478261
scalar SlicingScenario.node[4].nic.phy80211p ncollisions 0
scalar SlicingScenario.node[4].nic.phy80211p UnderSensitivityPackets 82
scalar SlicingScenario.node[4].nic.mac1609_4 ReceivedUnicastPackets_CCH 0
scalar SlicingScenario.node[4].nic.mac1609_4 ReceivedBroadcasts_CCH 0
scalar SlicingScenario.node[4].nic.mac1609_4 SentPackets_CCH 0
scalar SlicingScenario.node[4].nic.mac1609_4 SentAcknowledgements_CCH 0
scalar SlicingScenario.node[4].nic.mac1609_4 SNIRLostPackets_CCH 0
scalar SlicingScenario.node[4].nic.mac1609_4 RXTXLostPackets_CCH 0
scalar SlicingScenario.node[4].nic.mac1609_4 TotalLostPackets_CCH 0
scalar SlicingScenario.node[4].nic.mac1609_4 DroppedPacketsInMac_CCH 0
scalar SlicingScenario.node[4].nic.mac1609_4 TooLittleTime_CCH 0
scalar SlicingScenario.node[4].nic.mac1609_4 TimesIntoBackoff_CCH 0
scalar SlicingScenario.node[4].nic.mac1609_4 SlotsBackoff_CCH 0
scalar SlicingScenario.node[4].nic.mac1609_4 NumInternalContention_CCH 0
scalar SlicingScenario.node[4].nic.mac1609_4 RemainingPacketsInEDCA_CCH 0
scalar SlicingScenario.node[4].nic.mac1609_4 totalBusyTime_CCH 0
scalar SlicingScenario.node[4].nic.mac1609_4 ReceivedUnicastPackets_SCH 0
scalar SlicingScenario.node[4].nic.mac1609_4 ReceivedBroadcasts_SCH 697
scalar SlicingScenario.node[4].nic.mac1609_4 SentPackets_SCH 0
scalar SlicingScenario.node[4].nic.mac1609_4 SentAcknowledgements_SCH 0
scalar SlicingScenario.node[4].nic.mac1609_4 SNIRLostPackets_SCH 0
scalar SlicingScenario.node[4].nic.mac1609_4 RXTXLostPackets_SCH 0
scalar SlicingScenario.node[4].nic.mac1609_4 TotalLostPackets_SCH 0
scalar SlicingScenario.node[4].nic.mac1609_4 DroppedPacketsInMac_SCH 0
scalar SlicingScenario.node[4].nic.mac1609_4 TooLittleTime_SCH 0
scalar SlicingScenario.node[4].nic.mac1609_4 TimesIntoBackoff_SCH 0
scalar SlicingScenario.node[4].nic.mac1609_4 SlotsBackoff_SCH 0
scalar SlicingScenario.node[4].nic.mac1609_4 NumInternalContention_SCH 0
scalar SlicingScenario.node[4].nic.mac1609_4 RemainingPacketsInEDCA_SCH 0
scalar SlicingScenario.node[4].nic.mac1609_4 totalBusyTime_SCH 1.438608
scalar SlicingScenario.node[4].veinsmobility startTime 5
scalar SlicingScenario.node[4].veinsmobility totalTime 91
scalar SlicingScenario.node[4].veinsmobility stopTime 97
scalar SlicingScenario.node[4].veinsmobility minSpeed 10.612417935058
scalar SlicingScenario.node[4].veinsmobility maxSpeed 11.109723965186
scalar SlicingScenario.node[4].veinsmobility totalDistance 978.62231739305
scalar SlicingScenario.node[4].veinsmobility totalCO2Emission 158.1699395024
scalar SlicingScenario.node[5].appl txPackets_43 0
scalar SlicingScenario.node[5].appl rxPackets_43 0
scalar SlicingScenario.node[5].appl rxNeighborPackets_43 0
scalar SlicingScenario.node[5].appl meanDelay_43 0
scalar SlicingScenario.node[5].appl meanJitter_43 0
scalar SlicingScenario.node[5].appl meanRxPacketSize_43 0
scalar SlicingScenario.node[5].appl meanTxPacketSize_43 0
scalar SlicingScenario.node[5].appl meanRxThroughput_43 0
scalar SlicingScenario.node[5].appl meanTxThroughput_43 0
scalar SlicingScenario.node[5].appl rxTimeOfService_43 0
scalar SlicingScenario.node[5].appl txTimeOfService_43 0
scalar SlicingScenario.node[5].appl txPackets_41_43 0
scalar SlicingScenario.node[5].appl rxPackets_41_43 27
scalar SlicingScenario.node[5].appl rxNeighborPackets_41_43 346
scalar SlicingScenario.node[5].appl meanDelay_41_43 0.002074264734
scalar SlicingScenario.node[5].appl meanJitter_41_43 7.9937035e-05
scalar SlicingScenario.node[5].appl meanRxPacketSize_41_43 1510
scalar SlicingScenario.node[5].appl meanTxPacketSize_41_43 0
scalar SlicingScenario.node[5].appl meanRxThroughput_41_43 4181.5382478353
scalar SlicingScenario.node[5].appl meanTxThroughput_41_43 0
scalar SlicingScenario.node[5].appl rxTimeOfService_41_43 78.000003986295
scalar SlicingScenario.node[5].appl txTimeOfService_41_43 0
scalar SlicingScenario.node[5].nic.phy80211p busyTime 0.015951130434783
scalar SlicingScenario.node[5].nic.phy80211p ncollisions 0
scalar SlicingScenario.node[5].nic.phy80211p UnderSensitivityPackets 85
scalar SlicingScenario.node[5].nic.mac1609_4 ReceivedUnicastPackets_CCH 0
scalar SlicingScenario.node[5].nic.mac1609_4 ReceivedBroadcasts_CCH 0
scalar SlicingScenario.node[5].nic.mac1609_4 SentPackets_CCH 0
scalar SlicingScenario.node[5].nic.mac1609_4 SentAcknowledgements_CCH 0
scalar SlicingScenario.node[5].nic.mac1609_4 SNIRLostPackets_CCH 0
scalar SlicingScenario.node[5].nic.mac1609_4 RXTXLostPackets_CCH 0
scalar SlicingScenario.node[5].nic.mac1609_4 TotalLostPackets_CCH 0
scalar SlicingScenario.node[5].nic.mac1609_4 DroppedPacketsInMac_CCH 0
scalar SlicingScenario.node[5].nic.mac1609_4 TooLittleTime_CCH 0
scalar SlicingScenario.node[5].nic.mac1609_4 TimesIntoBackoff_CCH 0
scalar SlicingScenario.node[5].nic.mac1609_4 SlotsBackoff_CCH 0
scalar SlicingScenario.node[5].nic.mac1609_4 NumInternalContention_CCH 0
scalar SlicingScenario.node[5].nic.mac1609_4 RemainingPacketsInEDCA_CCH 0
scalar SlicingScenario.node[5].nic.mac1609_4 totalBusyTime_CCH 0
scalar SlicingScenario.node[5].nic.mac1609_4 ReceivedUnicastPackets_SCH 0
scalar SlicingScenario.node[5].nic.mac1609_4 ReceivedBroadcasts_SCH 711
scalar SlicingScenario.node[5].nic.mac1609_4 SentPackets_SCH 0
scalar SlicingScenario.node[5].nic.mac1609_4 SentAcknowledgements_SCH 0
scalar SlicingScenario.node[5].nic.mac1609_4 SNIRLostPackets_SCH 0
scalar SlicingScenario.node[5].nic.mac1609_4 RXTXLostPackets_SCH 0
scalar SlicingScenario.node[5].nic.mac1609_4 TotalLostPackets_SCH 0
scalar SlicingScenario.node[5].nic.mac1609_4 DroppedPacketsInMac_SCH 0
scalar SlicingScenario.node[5].nic.mac1609_4 TooLittleTime_SCH 0
scalar SlicingScenario.node[5].nic.mac1609_4 TimesIntoBackoff_SCH 0
scalar SlicingScenario.node[5].nic.mac1609_4 SlotsBackoff_SCH 0
scalar SlicingScenario.node[5].nic.mac1609_4 NumInternalContention_SCH 0
scalar SlicingScenario.node[5].nic.mac1609_4 RemainingPacketsInEDCA_SCH 0
scalar SlicingScenario.node[5].nic.mac1609_4 totalBusyTime_SCH 1.467504
scalar SlicingScenario.node[5].veinsmobility startTime 6
scalar SlicingScenario.node[5].veinsmobility totalTime 91
scalar SlicingScenario.node[5].veinsmobility stopTime 98
scalar SlicingScenario.node[5].veinsmobility minSpeed 10.622238204479
scalar SlicingScenario.node[5].veinsmobility maxSpeed 11.106634070296
scalar SlicingScenario.node[5].veinsmobility totalDistance 980.35467094567
scalar SlicingScenario.node[5].veinsmobility totalCO2Emission 158.91781665727
scalar SlicingScenario.node[2].appl txPackets_25 0
scalar SlicingScenario.node[2].appl rxPackets_25 0
scalar SlicingScenario.node[2].appl rxNeighborPackets_25 0
scalar SlicingScenario.node[2].appl meanDelay_25 0
scalar SlicingScenario.node[2].appl meanJitter_25 0
scalar SlicingScenario.node[2].appl meanRxPacketSize_25 0
scalar SlicingScenario.node[2].appl meanTxPacketSize_25 0
scalar SlicingScenario.node[2].appl meanRxThroughput_25 0
scalar SlicingScenario.node[2].appl meanTxThroughput_25 0
scalar SlicingScenario.node[2].appl rxTimeOfService_25 0
scalar SlicingScenario.node[2].appl txTimeOfService_25 0
scalar SlicingScenario.node[2].appl txPackets_40_25 0
scalar SlicingScenario.node[2].appl rxPackets_40_25 28
scalar SlicingScenario.node[2].appl rxNeighborPackets_40_25 311
scalar SlicingScenario.node[2].appl meanDelay_40_25 0.002071899325
scalar SlicingScenario.node[2].appl meanJitter_40_25 7.6868313e-05
scalar SlicingScenario.node[2].appl meanRxPacketSize_40_25 1510
scalar SlicingScenario.node[2].appl meanTxPacketSize_40_25 0
scalar SlicingScenario.node[2].appl meanRxThroughput_40_25 4175.8024729303
scalar SlicingScenario.node[2].appl meanTxThroughput_40_25 0
scalar SlicingScenario.node[2].appl rxTimeOfService_40_25 80.999999926396
scalar SlicingScenario.node[2].appl txTimeOfService_40_25 0
scalar SlicingScenario.node[2].nic.phy80211p busyTime 0.015469136842105
scalar SlicingScenario.node[2].nic.phy80211p ncollisions 0
scalar SlicingScenario.node[2].nic.phy80211p UnderSensitivityPackets 86
scalar SlicingScenario.node[2].nic.mac1609_4 ReceivedUnicastPackets_CCH 0
scalar SlicingScenario.node[2].nic.mac1609_4 ReceivedBroadcasts_CCH 0
scalar SlicingScenario.node[2].nic.mac1609_4 SentPackets_CCH 0
scalar SlicingScenario.node[2].nic.mac1609_4 SentAcknowledgements_CCH 0
scalar SlicingScenario.node[2].nic.mac1609_4 SNIRLostPackets_CCH 0
scalar SlicingScenario.node[2].nic.mac1609_4 RXTXLostPackets_CCH 0
scalar SlicingScenario.node[2].nic.mac1609_4 TotalLostPackets_CCH 0
scalar SlicingScenario.node[2].nic.mac1609_4 DroppedPacketsInMac_CCH 0
scalar SlicingScenario.node[2].nic.mac1609_4 TooLittleTime_CCH 0
scalar SlicingScenario.node[2].nic.mac1609_4 TimesIntoBackoff_CCH 0
scalar SlicingScenario.node[2].nic.mac1609_4 SlotsBackoff_CCH 0
scalar SlicingScenario.node[2].nic.mac1609_4 NumInternalContention_CCH 0
scalar SlicingScenario.node[2].nic.mac1609_4 RemainingPacketsInEDCA_CCH 0
scalar SlicingScenario.node[2].nic.mac1609_4 totalBusyTime_CCH 0
scalar SlicingScenario.node[2].nic.mac1609_4 ReceivedUnicastPackets_SCH 0
scalar SlicingScenario.node[2].nic.mac1609_4 ReceivedBroadcasts_SCH 712
scalar SlicingScenario.node[2].nic.mac1609_4 SentPackets_SCH 0
scalar SlicingScenario.node[2].nic.mac1609_4 SentAcknowledgements_SCH 0
scalar SlicingScenario.node[2].nic.mac1609_4 SNIRLostPackets_SCH 0
scalar SlicingScenario.node[2].nic.mac1609_4 RXTXLostPackets_SCH 0
scalar SlicingScenario.node[2].nic.mac1609_4 TotalLostPackets_SCH 0
scalar SlicingScenario.node[2].nic.mac1609_4 DroppedPacketsInMac_SCH 0
scalar SlicingScenario.node[2].nic.mac1609_4 TooLittleTime_SCH 0
scalar SlicingScenario.node[2].nic.mac1609_4 TimesIntoBackoff_SCH 0
scalar SlicingScenario.node[2].nic.mac1609_4 SlotsBackoff_SCH 0
scalar SlicingScenario.node[2].nic.mac1609_4 NumInternalContention_SCH 0
scalar SlicingScenario.node[2].nic.mac1609_4 RemainingPacketsInEDCA_SCH 0
scalar SlicingScenario.node[2].nic.mac1609_4 totalBusyTime_SCH 1.469568
scalar SlicingScenario.node[2].veinsmobility startTime 3
scalar SlicingScenario.node[2].veinsmobility totalTime 94
scalar SlicingScenario.node[2].veinsmobility stopTime 98
scalar SlicingScenario.node[2].veinsmobility minSpeed 5.0991160746301
scalar SlicingScenario.node[2].veinsmobility maxSpeed 11.109305008096
scalar SlicingScenario.node[2].veinsmobility totalDistance 984.43925696211
scalar SlicingScenario.node[2].veinsmobility totalCO2Emission 173.59199609032
scalar SlicingScenario.node[6].appl txPackets_49 0
scalar SlicingScenario.node[6].appl rxPackets_49 0
scalar SlicingScenario.node[6].appl rxNeighborPackets_49 0
scalar SlicingScenario.node[6].appl meanDelay_49 0
scalar SlicingScenario.node[6].appl meanJitter_49 0
scalar SlicingScenario.node[6].appl meanRxPacketSize_49 0
scalar SlicingScenario.node[6].appl meanTxPacketSize_49 0
scalar SlicingScenario.node[6].appl meanRxThroughput_49 0
scalar SlicingScenario.node[6].appl meanTxThroughput_49 0
scalar SlicingScenario.node[6].appl rxTimeOfService_49 0
scalar SlicingScenario.node[6].appl txTimeOfService_49 0
scalar SlicingScenario.node[6].appl txPackets_40_49 0
scalar SlicingScenario.node[6].appl rxPackets_40_49 27
scalar SlicingScenario.node[6].appl rxNeighborPackets_40_49 325
scalar SlicingScenario.node[6].appl meanDelay_40_49 0.002069119953
scalar SlicingScenario.node[6].appl meanJitter_40_49 7.9712909e-05
scalar SlicingScenario.node[6].appl meanRxPacketSize_40_49 1510
scalar SlicingScenario.node[6].appl meanTxPacketSize_40_49 0
scalar SlicingScenario.node[6].appl meanRxThroughput_40_49 4181.5384623435
scalar SlicingScenario.node[6].appl meanTxThroughput_40_49 0
scalar SlicingScenario.node[6].appl rxTimeOfService_40_49 77.999999984984
scalar SlicingScenario.node[6].appl txTimeOfService_40_49 0
scalar SlicingScenario.node[6].nic.phy80211p busyTime 0.016401032258065
scalar SlicingScenario.node[6].nic.phy80211p ncollisions 0
scalar SlicingScenario.node[6].nic.phy80211p UnderSensitivityPackets 87
scalar SlicingScenario.node[6].nic.mac1609_4 ReceivedUnicastPackets_CCH 0
scalar SlicingScenario.node[6].nic.mac1609_4 ReceivedBroadcasts_CCH 0
scalar SlicingScenario.node[6].nic.mac1609_4 SentPackets_CCH 0
scalar SlicingScenario.node[6].nic.mac1609_4 SentAcknowledgements_CCH 0
scalar SlicingScenario.node[6].nic.mac1609_4 SNIRLostPackets_CCH 0
scalar SlicingScenario.node[6].nic.mac1609_4 RXTXLostPackets_CCH 0
scalar SlicingScenario.node[6].nic.mac1609_4 TotalLostPackets_CCH 0
scalar SlicingScenario.node[6].nic.mac1609_4 DroppedPacketsInMac_CCH 0
scalar SlicingScenario.node[6].nic.mac1609_4 TooLittleTime_CCH 0
scalar SlicingScenario.node[6].nic.mac1609_4 TimesIntoBackoff_CCH 0
scalar SlicingScenario.node[6].nic.mac1609_4 SlotsBackoff_CCH 0
scalar SlicingScenario.node[6].nic.mac1609_4 NumInternalContention_CCH 0
scalar SlicingScenario.node[6].nic.mac1609_4 RemainingPacketsInEDCA_CCH 0
scalar SlicingScenario.node[6].nic.mac1609_4 totalBusyTime_CCH 0
scalar SlicingScenario.node[6].nic.mac1609_4 ReceivedUnicastPackets_SCH 0
scalar SlicingScenario.node[6].nic.mac1609_4 ReceivedBroadcasts_SCH 739
scalar SlicingScenario.node[6].nic.mac1609_4 SentPackets_SCH 0
scalar SlicingScenario.node[6].nic.mac1609_4 SentAcknowledgements_SCH 0
scalar SlicingScenario.node[6].nic.mac1609_4 SNIRLostPackets_SCH 0
scalar SlicingScenario.node[6].nic.mac1609_4 RXTXLostPackets_SCH 0
scalar SlicingScenario.node[6].nic.mac1609_4 TotalLostPackets_SCH 0
scalar SlicingScenario.node[6].nic.mac1609_4 DroppedPacketsInMac_SCH 0
scalar SlicingScenario.node[6].nic.mac1609_4 TooLittleTime_SCH 0
scalar SlicingScenario.node[6].nic.mac1609_4 TimesIntoBackoff_SCH 0
scalar SlicingScenario.node[6].nic.mac1609_4 SlotsBackoff_SCH 0
scalar SlicingScenario.node[6].nic.mac1609_4 NumInternalContention_SCH 0
scalar SlicingScenario.node[6].nic.mac1609_4 RemainingPacketsInEDCA_SCH 0
scalar SlicingScenario.node[6].nic.mac1609_4 totalBusyTime_SCH 1.525296
scalar SlicingScenario.node[6].veinsmobility startTime 7
scalar SlicingScenario.node[6].veinsmobility totalTime 92
scalar SlicingScenario.node[6].veinsmobility stopTime 100
scalar SlicingScenario.node[6].veinsmobility minSpeed 7.7141354519855
scalar SlicingScenario.node[6].veinsmobility maxSpeed 11.108083198676
scalar SlicingScenario.node[6].veinsmobility totalDistance 979.1264705722
scalar SlicingScenario.node[6].veinsmobility totalCO2Emission 168.09451866818
scalar SlicingScenario.node[7].appl txPackets_55 0
scalar SlicingScenario.node[7].appl rxPackets_55 0
scalar SlicingScenario.node[7].appl rxNeighborPackets_55 0
scalar SlicingScenario.node[7].appl meanDelay_55 0
scalar SlicingScenario.node[7].appl meanJitter_55 0
scalar SlicingScenario.node[7].appl meanRxPacketSize_55 0
scalar SlicingScenario.node[7].appl meanTxPacketSize_55 0
scalar SlicingScenario.node[7].appl meanRxThroughput_55 0
scalar SlicingScenario.node[7].appl meanTxThroughput_55 0
scalar SlicingScenario.node[7].appl rxTimeOfService_55 0
scalar SlicingScenario.node[7].appl txTimeOfService_55 0
scalar SlicingScenario.node[7].appl txPackets_41_55 0
scalar SlicingScenario.node[7].appl rxPackets_41_55 27
scalar SlicingScenario.node[7].appl rxNeighborPackets_41_55 360
scalar SlicingScenario.node[7].appl meanDelay_41_55 0.002073228926
scalar SlicingScenario.node[7].appl meanJitter_41_55 8.025357e-05
scalar SlicingScenario.node[7].appl meanRxPacketSize_41_55 1510
scalar SlicingScenario.node[7].appl meanTxPacketSize_41_55 0
scalar SlicingScenario.node[7].appl meanRxThroughput_41_55 4181.5387232967
scalar SlicingScenario.node[7].appl meanTxThroughput_41_55 0
scalar SlicingScenario.node[7].appl rxTimeOfService_41_55 77.999995117313
scalar SlicingScenario.node[7].appl txTimeOfService_41_55 0
scalar SlicingScenario.node[7].nic.phy80211p busyTime 0.016579304347826
scalar SlicingScenario.node[7].nic.phy80211p ncollisions 0
scalar SlicingScenario.node[7].nic.phy80211p UnderSensitivityPackets 86
scalar SlicingScenario.node[7].nic.mac1609_4 ReceivedUnicastPackets_CCH 0
scalar SlicingScenario.node[7].nic.mac1609_4 ReceivedBroadcasts_CCH 0
scalar SlicingScenario.node[7].nic.mac1609_4 SentPackets_CCH 0
scalar SlicingScenario.node[7].nic.mac1609_4 SentAcknowledgements_CCH 0
scalar SlicingScenario.node[7].nic.mac1609_4 SNIRLostPackets_CCH 0
scalar SlicingScenario.node[7].nic.mac1609_4 RXTXLostPackets_CCH 0
scalar SlicingScenario.node[7].nic.mac1609_4 TotalLostPackets_CCH 0
scalar SlicingScenario.node[7].nic.mac1609_4 DroppedPacketsInMac_CCH 0
scalar SlicingScenario.node[7].nic.mac1609_4 TooLittleTime_CCH 0
scalar SlicingScenario.node[7].nic.mac1609_4 TimesIntoBackoff_CCH 0
scalar SlicingScenario.node[7].nic.mac1609_4 SlotsBackoff_CCH 0
scalar SlicingScenario.node[7].nic.mac1609_4 NumInternalContention_CCH 0
scalar SlicingScenario.node[7].nic.mac1609_4 RemainingPacketsInEDCA_CCH 0
scalar SlicingScenario.node[7].nic.mac1609_4 totalBusyTime_CCH 0
scalar SlicingScenario.node[7].nic.mac1609_4 ReceivedUnicastPackets_SCH 0
scalar SlicingScenario.node[7].nic.mac1609_4 ReceivedBroadcasts_SCH 739
scalar SlicingScenario.node[7].nic.mac1609_4 SentPackets_SCH 0
scalar SlicingScenario.node[7].nic.mac1609_4 SentAcknowledgements_SCH 0
scalar SlicingScenario.node[7].nic.mac1609_4 SNIRLostPackets_SCH 0
scalar SlicingScenario.node[7].nic.mac1609_4 RXTXLostPackets_SCH 0
scalar SlicingScenario.node[7].nic.mac1609_4 TotalLostPackets_SCH 0
scalar SlicingScenario.node[7].nic.mac1609_4 DroppedPacketsInMac_SCH 0
scalar SlicingScenario.node[7].nic.mac1609_4 TooLittleTime_SCH 0
scalar SlicingScenario.node[7].nic.mac1609_4 TimesIntoBackoff_SCH 0
scalar SlicingScenario.node[7].nic.mac1609_4 SlotsBackoff_SCH 0
scalar SlicingScenario.node[7].nic.mac1609_4 NumInternalContention_SCH 0
scalar SlicingScenario.node[7].nic.mac1609_4 RemainingPacketsInEDCA_SCH 0
scalar SlicingScenario.node[7].nic.mac1609_4 totalBusyTime_SCH 1.525296
scalar SlicingScenario.node[7].veinsmobility startTime 8
scalar SlicingScenario.node[7].veinsmobility totalTime 91
scalar SlicingScenario.node[7].veinsmobility stopTime 100
scalar SlicingScenario.node[7].veinsmobility minSpeed 10.619944219259
scalar SlicingScenario.node[7].veinsmobility maxSpeed 11.109856603914
scalar SlicingScenario.node[7].veinsmobility totalDistance 976.92234199429
scalar SlicingScenario.node[7].veinsmobility totalCO2Emission 157.94186358666
scalar SlicingScenario.node[9].appl txPackets_67 0
scalar SlicingScenario.node[9].appl rxPackets_67 0
scalar SlicingScenario.node[9].appl rxNeighborPackets_67 0
scalar SlicingScenario.node[9].appl meanDelay_67 0
scalar SlicingScenario.node[9].appl meanJitter_67 0
scalar SlicingScenario.node[9].appl meanRxPacketSize_67 0
scalar SlicingScenario.node[9].appl meanTxPacketSize_67 0
scalar SlicingScenario.node[9].appl meanRxThroughput_67 0
scalar SlicingScenario.node[9].appl meanTxThroughput_67 0
scalar SlicingScenario.node[9].appl rxTimeOfService_67 0
scalar SlicingScenario.node[9].appl txTimeOfService_67 0
scalar SlicingScenario.node[9].appl txPackets_41_67 0
scalar SlicingScenario.node[9].appl rxPackets_41_67 26
scalar SlicingScenario.node[9].appl rxNeighborPackets_41_67 374
scalar SlicingScenario.node[9].appl meanDelay_41_67 0.002076503514
scalar SlicingScenario.node[9].appl meanJitter_41_67 8.3621272e-05
scalar SlicingScenario.node[9].appl meanRxPacketSize_41_67 1510
scalar SlicingScenario.node[9].appl meanTxPacketSize_41_67 0
scalar SlicingScenario.node[9].appl meanRxThroughput_41_67 4187.7338266615
scalar SlicingScenario.node[9].appl meanTxThroughput_41_67 0
scalar SlicingScenario.node[9].appl rxTimeOfService_41_67 74.999991164765
scalar SlicingScenario.node[9].appl txTimeOfService_41_67 0
scalar SlicingScenario.node[9].nic.phy80211p busyTime 0.017162608695652
scalar SlicingScenario.node[9].nic.phy80211p ncollisions 0
scalar SlicingScenario.node[9].nic.phy80211p UnderSensitivityPackets 92
scalar SlicingScenario.node[9].nic.mac1609_4 ReceivedUnicastPackets_CCH 0
scalar SlicingScenario.node[9].nic.mac1609_4 ReceivedBroadcasts_CCH 0
scalar SlicingScenario.node[9].nic.mac1609_4 SentPackets_CCH 0
scalar SlicingScenario.node[9].nic.mac1609_4 SentAcknowledgements_CCH 0
scalar SlicingScenario.node[9].nic.mac1609_4 SNIRLostPackets_CCH 0
scalar SlicingScenario.node[9].nic.mac1609_4 RXTXLostPackets_CCH 0
scalar SlicingScenario.node[9].nic.mac1609_4 TotalLostPackets_CCH 0
scalar SlicingScenario.node[9].nic.mac1609_4 DroppedPacketsInMac_CCH 0
scalar SlicingScenario.node[9].nic.mac1609_4 TooLittleTime_CCH 0
scalar SlicingScenario.node[9].nic.mac1609_4 TimesIntoBackoff_CCH 0
scalar SlicingScenario.node[9].nic.mac1609_4 SlotsBackoff_CCH 0
scalar SlicingScenario.node[9].nic.mac1609_4 NumInternalContention_CCH 0
scalar SlicingScenario.node[9].nic.mac1609_4 RemainingPacketsInEDCA_CCH 0
scalar SlicingScenario.node[9].nic.mac1609_4 totalBusyTime_CCH 0
scalar SlicingScenario.node[9].nic.mac1609_4 ReceivedUnicastPackets_SCH 0
scalar SlicingScenario.node[9].nic.mac1609_4 ReceivedBroadcasts_SCH 765
scalar SlicingScenario.node[9].nic.mac1609_4 SentPackets_SCH 0
scalar SlicingScenario.node[9].nic.mac1609_4 SentAcknowledgements_SCH 0
scalar SlicingScenario.node[9].nic.mac1609_4 SNIRLostPackets_SCH 0
scalar SlicingScenario.node[9].nic.mac1609_4 RXTXLostPackets_SCH 0
scalar SlicingScenario.node[9].nic.mac1609_4 TotalLostPackets_SCH 0
scalar SlicingScenario.node[9].nic.mac1609_4 DroppedPacketsInMac_SCH 0
scalar SlicingScenario.node[9].nic.mac1609_4 TooLittleTime_SCH 0
scalar SlicingScenario.node[9].nic.mac1609_4 TimesIntoBackoff_SCH 0
scalar SlicingScenario.node[9].nic.mac1609_4 SlotsBackoff_SCH 0
scalar SlicingScenario.node[9].nic.mac1609_4 NumInternalContention_SCH 0
scalar SlicingScenario.node[9].nic.mac1609_4 RemainingPacketsInEDCA_SCH 0
scalar SlicingScenario.node[9].nic.mac1609_4 totalBusyTime_SCH 1.57896
scalar SlicingScenario.node[9].veinsmobility startTime 10
scalar SlicingScenario.node[9].veinsmobility totalTime 91
scalar SlicingScenario.node[9].veinsmobility stopTime 102
scalar SlicingScenario.node[9].veinsmobility minSpeed 10.613417195752
scalar SlicingScenario.node[9].veinsmobility maxSpeed 11.106257838677
scalar SlicingScenario.node[9].veinsmobility totalDistance 979.13428527374
scalar SlicingScenario.node[9].veinsmobility totalCO2Emission 158.60232524977
scalar SlicingScenario.node[8].appl txPackets_61 0
scalar SlicingScenario.node[8].appl rxPackets_61 0
scalar SlicingScenario.node[8].appl rxNeighborPackets_61 0
scalar SlicingScenario.node[8].appl meanDelay_61 0
scalar SlicingScenario.node[8].appl meanJitter_61 0
scalar SlicingScenario.node[8].appl meanRxPacketSize_61 0
scalar SlicingScenario.node[8].appl meanTxPacketSize_61 0
scalar SlicingScenario.node[8].appl meanRxThroughput_61 0
scalar SlicingScenario.node[8].appl meanTxThroughput_61 0
scalar SlicingScenario.node[8].appl rxTimeOfService_61 0
scalar SlicingScenario.node[8].appl txTimeOfService_61 0
scalar SlicingScenario.node[8].appl txPackets_40_61 0
scalar SlicingScenario.node[8].appl rxPackets_40_61 27
scalar SlicingScenario.node[8].appl rxNeighborPackets_40_61 338
scalar SlicingScenario.node[8].appl meanDelay_40_61 0.002073917918
scalar SlicingScenario.node[8].appl meanJitter_40_61 7.9977703e-05
scalar SlicingScenario.node[8].appl meanRxPacketSize_40_61 1510
scalar SlicingScenario.node[8].appl meanTxPacketSize_40_61 0
scalar SlicingScenario.node[8].appl meanRxThroughput_40_61 4181.5382399849
scalar SlicingScenario.node[8].appl meanTxThroughput_40_61 0
scalar SlicingScenario.node[8].appl rxTimeOfService_40_61 78.000004132732
scalar SlicingScenario.node[8].appl txTimeOfService_40_61 0
scalar SlicingScenario.node[8].nic.phy80211p busyTime 0.016978064516129
scalar SlicingScenario.node[8].nic.phy80211p ncollisions 0
scalar SlicingScenario.node[8].nic.phy80211p UnderSensitivityPackets 93
scalar SlicingScenario.node[8].nic.mac1609_4 ReceivedUnicastPackets_CCH 0
scalar SlicingScenario.node[8].nic.mac1609_4 ReceivedBroadcasts_CCH 0
scalar SlicingScenario.node[8].nic.mac1609_4 SentPackets_CCH 0
scalar SlicingScenario.node[8].nic.mac1609_4 SentAcknowledgements_CCH 0
scalar SlicingScenario.node[8].nic.mac1609_4 SNIRLostPackets_CCH 0
scalar SlicingScenario.node[8].nic.mac1609_4 RXTXLostPackets_CCH 0
scalar SlicingScenario.node[8].nic.mac1609_4 TotalLostPackets_CCH 0
scalar SlicingScenario.node[8].nic.mac1609_4 DroppedPacketsInMac_CCH 0
scalar SlicingScenario.node[8].nic.mac1609_4 TooLittleTime_CCH 0
scalar SlicingScenario.node[8].nic.mac1609_4 TimesIntoBackoff_CCH 0
scalar SlicingScenario.node[8].nic.mac1609_4 SlotsBackoff_CCH 0
scalar SlicingScenario.node[8].nic.mac1609_4 NumInternalContention_CCH 0
scalar SlicingScenario.node[8].nic.mac1609_4 RemainingPacketsInEDCA_CCH 0
scalar SlicingScenario.node[8].nic.mac1609_4 totalBusyTime_CCH 0
scalar SlicingScenario.node[8].nic.mac1609_4 ReceivedUnicastPackets_SCH 0
scalar SlicingScenario.node[8].nic.mac1609_4 ReceivedBroadcasts_SCH 765
scalar SlicingScenario.node[8].nic.mac1609_4 SentPackets_SCH 0
scalar SlicingScenario.node[8].nic.mac1609_4 SentAcknowledgements_SCH 0
scalar SlicingScenario.node[8].nic.mac1609_4 SNIRLostPackets_SCH 0
scalar SlicingScenario.node[8].nic.mac1609_4 RXTXLostPackets_SCH 0
scalar SlicingScenario.node[8].nic.mac1609_4 TotalLostPackets_SCH 0
scalar SlicingScenario.node[8].nic.mac1609_4 DroppedPacketsInMac_SCH 0
scalar SlicingScenario.node[8].nic.mac1609_4 TooLittleTime_SCH 0
scalar SlicingScenario.node[8].nic.mac1609_4 TimesIntoBackoff_SCH 0
scalar SlicingScenario.node[8].nic.mac1609_4 SlotsBackoff_SCH 0
scalar SlicingScenario.node[8].nic.mac1609_4 NumInternalContention_SCH 0
scalar SlicingScenario.node[8].nic.mac1609_4 RemainingPacketsInEDCA_SCH 0
scalar SlicingScenario.node[8].nic.mac1609_4 totalBusyTime_SCH 1.57896
scalar SlicingScenario.node[8].veinsmobility startTime 9
scalar SlicingScenario.node[8].veinsmobility totalTime 92
scalar SlicingScenario.node[8].veinsmobility stopTime 102
scalar SlicingScenario.node[8].veinsmobility minSpeed 7.767801879717
scalar SlicingScenario.node[8].veinsmobility maxSpeed 11.108310200172
scalar SlicingScenario.node[8].veinsmobility totalDistance 977.87047099309
scalar SlicingScenario.node[8].veinsmobility totalCO2Emission 167.9154031827
scalar SlicingScenario.node[10].appl txPackets_73 0
scalar SlicingScenario.node[10].appl rxPackets_73 0
scalar SlicingScenario.node[10].appl rxNeighborPackets_73 0
scalar SlicingScenario.node[10].appl meanDelay_73 0
scalar SlicingScenario.node[10].appl meanJitter_73 0
scalar SlicingScenario.node[10].appl meanRxPacketSize_73 0
scalar SlicingScenario.node[10].appl meanTxPacketSize_73 0
scalar SlicingScenario.node[10].appl meanRxThroughput_73 0
scalar SlicingScenario.node[10].appl meanTxThroughput_73 0
scalar SlicingScenario.node[10].appl rxTimeOfService_73 0
scalar SlicingScenario.node[10].appl txTimeOfService_73 0
scalar SlicingScenario.node[10].appl txPackets_40_73 0
scalar SlicingScenario.node[10].appl rxPackets_40_73 25
scalar SlicingScenario.node[10].appl rxNeighborPackets_40_73 347
scalar SlicingScenario.node[10].appl meanDelay_40_73 0.002074208903
scalar SlicingScenario.node[10].appl meanJitter_40_73 8.6552965e-05
scalar SlicingScenario.node[10].appl meanRxPacketSize_40_73 1510
scalar SlicingScenario.node[10].appl meanTxPacketSize_40_73 0
scalar SlicingScenario.node[10].appl meanRxThroughput_40_73 4194.4444327886
scalar SlicingScenario.node[10].appl meanTxThroughput_40_73 0
scalar SlicingScenario.node[10].appl rxTimeOfService_40_73 72.000000200079
scalar SlicingScenario.node[10].appl txTimeOfService_40_73 0
scalar SlicingScenario.node[10].nic.phy80211p busyTime 0.017499130434783
scalar SlicingScenario.node[10].nic.phy80211p ncollisions 0
scalar SlicingScenario.node[10].nic.phy80211p UnderSensitivityPackets 91
scalar SlicingScenario.node[10].nic.mac1609_4 ReceivedUnicastPackets_CCH 0
scalar SlicingScenario.node[10].nic.mac1609_4 ReceivedBroadcasts_CCH 0
scalar SlicingScenario.node[10].nic.mac1609_4 SentPackets_CCH 0
scalar SlicingScenario.node[10].nic.mac1609_4 SentAcknowledgements_CCH 0
scalar SlicingScenario.node[10].nic.mac1609_4 SNIRLostPackets_CCH 0
scalar SlicingScenario.node[10].nic.mac1609_4 RXTXLostPackets_CCH 0
scalar SlicingScenario.node[10].nic.mac1609_4 TotalLostPackets_CCH 0
scalar SlicingScenario.node[10].nic.mac1609_4 DroppedPacketsInMac_CCH 0
scalar SlicingScenario.node[10].nic.mac1609_4 TooLittleTime_CCH 0
scalar SlicingScenario.node[10].nic.mac1609_4 TimesIntoBackoff_CCH 0
scalar SlicingScenario.node[10].nic.mac1609_4 SlotsBackoff_CCH 0
scalar SlicingScenario.node[10].nic.mac1609_4 NumInternalContention_CCH 0
scalar SlicingScenario.node[10].nic.mac1609_4 RemainingPacketsInEDCA_CCH 0
scalar SlicingScenario.node[10].nic.mac1609_4 totalBusyTime_CCH 0
scalar SlicingScenario.node[10].nic.mac1609_4 ReceivedUnicastPackets_SCH 0
scalar SlicingScenario.node[10].nic.mac1609_4 ReceivedBroadcasts_SCH 780
scalar SlicingScenario.node[10].nic.mac1609_4 SentPackets_SCH 0
scalar SlicingScenario.node[10].nic.mac1609_4 SentAcknowledgements_SCH 0
scalar SlicingScenario.node[10].nic.mac1609_4 SNIRLostPackets_SCH 0
scalar SlicingScenario.node[10].nic.mac1609_4 RXTXLostPackets_SCH 0
scalar SlicingScenario.node[10].nic.mac1609_4 TotalLostPackets_SCH 0
scalar SlicingScenario.node[10].nic.mac1609_4 DroppedPacketsInMac_SCH 0
scalar SlicingScenario.node[10].nic.mac1609_4 TooLittleTime_SCH 0
scalar SlicingScenario.node[10].nic.mac1609_4 TimesIntoBackoff_SCH 0
scalar SlicingScenario.node[10].nic.mac1609_4 SlotsBackoff_SCH 0
scalar SlicingScenario.node[10].nic.mac1609_4 NumInternalContention_SCH 0
scalar SlicingScenario.node[10].nic.mac1609_4 RemainingPacketsInEDCA_SCH 0
scalar SlicingScenario.node[10].nic.mac1609_4 totalBusyTime_SCH 1.60992
scalar SlicingScenario.node[10].veinsmobility startTime 11
scalar SlicingScenario.node[10].veinsmobility totalTime 91
scalar SlicingScenario.node[10].veinsmobility stopTime 103
scalar SlicingScenario.node[10].veinsmobility minSpeed 10.631394109819
scalar SlicingScenario.node[10].veinsmobility maxSpeed 11.102724971031
scalar SlicingScenario.node[10].veinsmobility totalDistance 979.79657595866
scalar SlicingScenario.node[10].veinsmobility totalCO2Emission 159.58403914597
scalar SlicingScenario.node[11].appl txPackets_79 0
scalar SlicingScenario.node[11].appl rxPackets_79 0
scalar SlicingScenario.node[11].appl rxNeighborPackets_79 0
scalar SlicingScenario.node[11].appl meanDelay_79 0
scalar SlicingScenario.node[11].appl meanJitter_79 0
scalar SlicingScenario.node[11].appl meanRxPacketSize_79 0
scalar SlicingScenario.node[11].appl meanTxPacketSize_79 0
scalar SlicingScenario.node[11].appl meanRxThroughput_79 0
scalar SlicingScenario.node[11].appl meanTxThroughput_79 0
scalar SlicingScenario.node[11].appl rxTimeOfService_79 0
scalar SlicingScenario.node[11].appl txTimeOfService_79 0
scalar SlicingScenario.node[11].appl txPackets_41_79 0
scalar SlicingScenario.node[11].appl rxPackets_41_79 25
scalar SlicingScenario.node[11].appl rxNeighborPackets_41_79 396
scalar SlicingScenario.node[11].appl meanDelay_41_79 0.002072984344
scalar SlicingScenario.node[11].appl meanJitter_41_79 8.7063358e-05
scalar SlicingScenario.node[11].appl meanRxPacketSize_41_79 1510
scalar SlicingScenario.node[11].appl meanTxPacketSize_41_79 0
scalar SlicingScenario.node[11].appl meanRxThroughput_41_79 4194.4449554826
scalar SlicingScenario.node[11].appl meanTxThroughput_41_79 0
scalar SlicingScenario.node[11].appl rxTimeOfService_41_79 71.999991227743
scalar SlicingScenario.node[11].appl txTimeOfService_41_79 0
scalar SlicingScenario.node[11].nic.phy80211p busyTime 0.017888
scalar SlicingScenario.node[11].nic.phy80211p ncollisions 0
scalar SlicingScenario.node[11].nic.phy80211p UnderSensitivityPackets 99
scalar SlicingScenario.node[11].nic.mac1609_4 ReceivedUnicastPackets_CCH 0
scalar SlicingScenario.node[11].nic.mac1609_4 ReceivedBroadcasts_CCH 0
scalar SlicingScenario.node[11].nic.mac1609_4 SentPackets_CCH 0
scalar SlicingScenario.node[11].nic.mac1609_4 SentAcknowledgements_CCH 0
scalar SlicingScenario.node[11].nic.mac1609_4 SNIRLostPackets_CCH 0
scalar SlicingScenario.node[11].nic.mac1609_4 RXTXLostPackets_CCH 0
scalar SlicingScenario.node[11].nic.mac1609_4 TotalLostPackets_CCH 0
scalar SlicingScenario.node[11].nic.mac1609_4 DroppedPacketsInMac_CCH 0
scalar SlicingScenario.node[11].nic.mac1609_4 TooLittleTime_CCH 0
scalar SlicingScenario.node[11].nic.mac1609_4 TimesIntoBackoff_CCH 0
scalar SlicingScenario.node[11].nic.mac1609_4 SlotsBackoff_CCH 0
scalar SlicingScenario.node[11].nic.mac1609_4 NumInternalContention_CCH 0
scalar SlicingScenario.node[11].nic.mac1609_4 RemainingPacketsInEDCA_CCH 0
scalar SlicingScenario.node[11].nic.mac1609_4 totalBusyTime_CCH 0
scalar SlicingScenario.node[11].nic.mac1609_4 ReceivedUnicastPackets_SCH 0
scalar SlicingScenario.node[11].nic.mac1609_4 ReceivedBroadcasts_SCH 806
scalar SlicingScenario.node[11].nic.mac1609_4 SentPackets_SCH 0
scalar SlicingScenario.node[11].nic.mac1609_4 SentAcknowledgements_SCH 0
scalar SlicingScenario.node[11].nic.mac1609_4 SNIRLostPackets_SCH 0
scalar SlicingScenario.node[11].nic.mac1609_4 RXTXLostPackets_SCH 0
scalar SlicingScenario.node[11].nic.mac1609_4 TotalLostPackets_SCH 0
scalar SlicingScenario.node[11].nic.mac1609_4 DroppedPacketsInMac_SCH 0
scalar SlicingScenario.node[11].nic.mac1609_4 TooLittleTime_SCH 0
scalar SlicingScenario.node[11].nic.mac1609_4 TimesIntoBackoff_SCH 0
scalar SlicingScenario.node[11].nic.mac1609_4 SlotsBackoff_SCH 0
scalar SlicingScenario.node[11].nic.mac1609_4 NumInternalContention_SCH 0
scalar SlicingScenario.node[11].nic.mac1609_4 RemainingPacketsInEDCA_SCH 0
scalar SlicingScenario.node[11].nic.mac1609_4 totalBusyTime_SCH 1.663584
scalar SlicingScenario.node[11].veinsmobility startTime 12
scalar SlicingScenario.node[11].veinsmobility totalTime 92
scalar SlicingScenario.node[11].veinsmobility stopTime 105
scalar SlicingScenario.node[11].veinsmobility minSpeed 8.2570868203049
scalar SlicingScenario.node[11].veinsmobility maxSpeed 11.101409645532
scalar SlicingScenario.node[11].veinsmobility totalDistance 984.55604484814
scalar SlicingScenario.node[11].veinsmobility totalCO2Emission 165.88578871991
scalar SlicingScenario.node[13].appl txPackets_91 0
scalar SlicingScenario.node[13].appl rxPackets_91 0
scalar SlicingScenario.node[13].appl rxNeighborPackets_91 0
scalar SlicingScenario.node[13].appl meanDelay_91 0
scalar SlicingScenario.node[13].appl meanJitter_91 0
scalar SlicingScenario.node[13].appl meanRxPacketSize_91 0
scalar SlicingScenario.node[13].appl meanTxPacketSize_91 0
scalar SlicingScenario.node[13].appl meanRxThroughput_91 0
scalar SlicingScenario.node[13].appl meanTxThroughput_91 0
scalar SlicingScenario.node[13].appl rxTimeOfService_91 0
scalar SlicingScenario.node[13].appl txTimeOfService_91 0
scalar SlicingScenario.node[13].appl txPackets_40_91 0
scalar SlicingScenario.node[13].appl rxPackets_40_91 25
scalar SlicingScenario.node[13].appl rxNeighborPackets_40_91 367
scalar SlicingScenario.node[13].appl meanDelay_40_91 0.002072901334
scalar SlicingScenario.node[13].appl meanJitter_40_91 8.7091675e-05
scalar SlicingScenario.node[13].appl meanRxPacketSize_40_91 1510
scalar SlicingScenario.node[13].appl meanTxPacketSize_40_91 0
scalar SlicingScenario.node[13].appl meanRxThroughput_40_91 4194.4449487404
scalar SlicingScenario.node[13].appl meanTxThroughput_40_91 0
scalar SlicingScenario.node[13].appl rxTimeOfService_40_91 71.999991343477
scalar SlicingScenario.node[13].appl txTimeOfService_40_91 0
scalar SlicingScenario.node[13].nic.phy80211p busyTime 0.018441391304348
scalar SlicingScenario.node[13].nic.phy80211p ncollisions 0
scalar SlicingScenario.node[13].nic.phy80211p UnderSensitivityPackets 95
scalar SlicingScenario.node[13].nic.mac1609_4 ReceivedUnicastPackets_CCH 0
scalar SlicingScenario.node[13].nic.mac1609_4 ReceivedBroadcasts_CCH 0
scalar SlicingScenario.node[13].nic.mac1609_4 SentPackets_CCH 0
scalar SlicingScenario.node[13].nic.mac1609_4 SentAcknowledgements_CCH 0
scalar SlicingScenario.node[13].nic.mac1609_4 SNIRLostPackets_CCH 0
scalar SlicingScenario.node[13].nic.mac1609_4 RXTXLostPackets_CCH 0
scalar SlicingScenario.node[13].nic.mac1609_4 TotalLostPackets_CCH 0
scalar SlicingScenario.node[13].nic.mac1609_4 DroppedPacketsInMac_CCH 0
scalar SlicingScenario.node[13].nic.mac1609_4 TooLittleTime_CCH 0
scalar SlicingScenario.node[13].nic.mac1609_4 TimesIntoBackoff_CCH 0
scalar SlicingScenario.node[13].nic.mac1609_4 SlotsBackoff_CCH 0
scalar SlicingScenario.node[13].nic.mac1609_4 NumInternalContention_CCH 0
scalar SlicingScenario.node[13].nic.mac1609_4 RemainingPacketsInEDCA_CCH 0
scalar SlicingScenario.node[13].nic.mac1609_4 totalBusyTime_CCH 0
scalar SlicingScenario.node[13].nic.mac1609_4 ReceivedUnicastPackets_SCH 0
scalar SlicingScenario.node[13].nic.mac1609_4 ReceivedBroadcasts_SCH 822
scalar SlicingScenario.node[13].nic.mac1609_4 SentPackets_SCH 0
scalar SlicingScenario.node[13].nic.mac1609_4 SentAcknowledgements_SCH 0
scalar SlicingScenario.node[13].nic.mac1609_4 SNIRLostPackets_SCH 0
scalar SlicingScenario.node[13].nic.mac1609_4 RXTXLostPackets_SCH 0
scalar SlicingScenario.node[13].nic.mac1609_4 TotalLostPackets_SCH 0
scalar SlicingScenario.node[13].nic.mac1609_4 DroppedPacketsInMac_SCH 0
scalar SlicingScenario.node[13].nic.mac1609_4 TooLittleTime_SCH 0
scalar SlicingScenario.node[13].nic.mac1609_4 TimesIntoBackoff_SCH 0
scalar SlicingScenario.node[13].nic.mac1609_4 SlotsBackoff_SCH 0
scalar SlicingScenario.node[13].nic.mac1609_4 NumInternalContention_SCH 0
scalar SlicingScenario.node[13].nic.mac1609_4 RemainingPacketsInEDCA_SCH 0
scalar SlicingScenario.node[13].nic.mac1609_4 totalBusyTime_SCH 1.696608
scalar SlicingScenario.node[13].veinsmobility startTime 14
scalar SlicingScenario.node[13].veinsmobility totalTime 91
scalar SlicingScenario.node[13].veinsmobility stopTime 106
scalar SlicingScenario.node[13].veinsmobility minSpeed 10.614236952867
scalar SlicingScenario.node[13].veinsmobility maxSpeed 11.104057011791
scalar SlicingScenario.node[13].veinsmobility totalDistance 979.88843139241
scalar SlicingScenario.node[13].veinsmobility totalCO2Emission 158.62443087329
scalar SlicingScenario.node[12].appl txPackets_85 0
scalar SlicingScenario.node[12].appl rxPackets_85 0
scalar SlicingScenario.node[12].appl rxNeighborPackets_85 0
scalar SlicingScenario.node[12].appl meanDelay_85 0
scalar SlicingScenario.node[12].appl meanJitter_85 0
scalar SlicingScenario.node[12].appl meanRxPacketSize_85 0
scalar SlicingScenario.node[12].appl meanTxPacketSize_85 0
scalar SlicingScenario.node[12].appl meanRxThroughput_85 0
scalar SlicingScenario.node[12].appl meanTxThroughput_85 0
scalar SlicingScenario.node[12].appl rxTimeOfService_85 0
scalar SlicingScenario.node[12].appl txTimeOfService_85 0
scalar SlicingScenario.node[12].appl txPackets_41_85 0
scalar SlicingScenario.node[12].appl rxPackets_41_85 26
scalar SlicingScenario.node[12].appl rxNeighborPackets_41_85 412
scalar SlicingScenario.node[12].appl meanDelay_41_85 0.002067707807
scalar SlicingScenario.node[12].appl meanJitter_41_85 8.2832344e-05
scalar SlicingScenario.node[12].appl meanRxPacketSize_41_85 1510
scalar SlicingScenario.node[12].appl meanTxPacketSize_41_85 0
scalar SlicingScenario.node[12].appl meanRxThroughput_41_85 4187.7333198653
scalar SlicingScenario.node[12].appl meanTxThroughput_41_85 0
scalar SlicingScenario.node[12].appl rxTimeOfService_41_85 75.000000241205
scalar SlicingScenario.node[12].appl txTimeOfService_41_85 0
scalar SlicingScenario.node[12].nic.phy80211p busyTime 0.018334468085107
scalar SlicingScenario.node[12].nic.phy80211p ncollisions 0
scalar SlicingScenario.node[12].nic.phy80211p UnderSensitivityPackets 104
scalar SlicingScenario.node[12].nic.mac1609_4 ReceivedUnicastPackets_CCH 0
scalar SlicingScenario.node[12].nic.mac1609_4 ReceivedBroadcasts_CCH 0
scalar SlicingScenario.node[12].nic.mac1609_4 SentPackets_CCH 0
scalar SlicingScenario.node[12].nic.mac1609_4 SentAcknowledgements_CCH 0
scalar SlicingScenario.node[12].nic.mac1609_4 SNIRLostPackets_CCH 0
scalar SlicingScenario.node[12].nic.mac1609_4 RXTXLostPackets_CCH 0
scalar SlicingScenario.node[12].nic.mac1609_4 TotalLostPackets_CCH 0
scalar SlicingScenario.node[12].nic.mac1609_4 DroppedPacketsInMac_CCH 0
scalar SlicingScenario.node[12].nic.mac1609_4 TooLittleTime_CCH 0
scalar SlicingScenario.node[12].nic.mac1609_4 TimesIntoBackoff_CCH 0
scalar SlicingScenario.node[12].nic.mac1609_4 SlotsBackoff_CCH 0
scalar SlicingScenario.node[12].nic.mac1609_4 NumInternalContention_CCH 0
scalar SlicingScenario.node[12].nic.mac1609_4 RemainingPacketsInEDCA_CCH 0
scalar SlicingScenario.node[12].nic.mac1609_4 totalBusyTime_CCH 0
scalar SlicingScenario.node[12].nic.mac1609_4 ReceivedUnicastPackets_SCH 0
scalar SlicingScenario.node[12].nic.mac1609_4 ReceivedBroadcasts_SCH 835
scalar SlicingScenario.node[12].nic.mac1609_4 SentPackets_SCH 0
scalar SlicingScenario.node[12].nic.mac1609_4 SentAcknowledgements_SCH 0
scalar SlicingScenario.node[12].nic.mac1609_4 SNIRLostPackets_SCH 0
scalar SlicingScenario.node[12].nic.mac1609_4 RXTXLostPackets_SCH 0
scalar SlicingScenario.node[12].nic.mac1609_4 TotalLostPackets_SCH 0
scalar SlicingScenario.node[12].nic.mac1609_4 DroppedPacketsInMac_SCH 0
scalar SlicingScenario.node[12].nic.mac1609_4 TooLittleTime_SCH 0
scalar SlicingScenario.node[12].nic.mac1609_4 TimesIntoBackoff_SCH 0
scalar SlicingScenario.node[12].nic.mac1609_4 SlotsBackoff_SCH 0
scalar SlicingScenario.node[12].nic.mac1609_4 NumInternalContention_SCH 0
scalar SlicingScenario.node[12].nic.mac1609_4 RemainingPacketsInEDCA_SCH 0
scalar SlicingScenario.node[12].nic.mac1609_4 totalBusyTime_SCH 1.72344
scalar SlicingScenario.node[12].veinsmobility startTime 13
scalar SlicingScenario.node[12].veinsmobility totalTime 93
scalar SlicingScenario.node[12].veinsmobility stopTime 107
scalar SlicingScenario.node[12].veinsmobility minSpeed 5.1965781304273
scalar SlicingScenario.node[12].veinsmobility maxSpeed 11.107947257594
scalar SlicingScenario.node[12].veinsmobility totalDistance 980.32546467956
scalar SlicingScenario.node[12].veinsmobility totalCO2Emission 171.85679914162
scalar SlicingScenario.node[15].appl txPackets_103 0
scalar SlicingScenario.node[15].appl rxPackets_103 0
scalar SlicingScenario.node[15].appl rxNeighborPackets_103 0
scalar SlicingScenario.node[15].appl meanDelay_103 0
scalar SlicingScenario.node[15].appl meanJitter_103 0
scalar SlicingScenario.node[15].appl meanRxPacketSize_103 0
scalar SlicingScenario.node[15].appl meanTxPacketSize_103 0
scalar SlicingScenario.node[15].appl meanRxThroughput_103 0
scalar SlicingScenario.node[15].appl meanTxThroughput_103 0
scalar SlicingScenario.node[15].appl rxTimeOfService_103 0
scalar SlicingScenario.node[15].appl txTimeOfService_103 0
scalar SlicingScenario.node[15].appl txPackets_40_103 0
scalar SlicingScenario.node[15].appl rxPackets_40_103 24
scalar SlicingScenario.node[15].appl rxNeighborPackets_40_103 387
scalar SlicingScenario.node[15].appl meanDelay_40_103 0.002067246806
scalar SlicingScenario.node[15].appl meanJitter_40_103 9.0157424e-05
scalar SlicingScenario.node[15].appl meanRxPacketSize_40_103 1510
scalar SlicingScenario.node[15].appl meanTxPacketSize_40_103 0
scalar SlicingScenario.node[15].appl meanRxThroughput_40_103 4201.7388592976
scalar SlicingScenario.node[15].appl meanTxThroughput_40_103 0
scalar SlicingScenario.node[15].appl rxTimeOfService_40_103 69.000004452553
scalar SlicingScenario.node[15].appl txTimeOfService_40_103 0
scalar SlicingScenario.node[15].nic.phy80211p busyTime 0.019361217391305
scalar SlicingScenario.node[15].nic.phy80211p ncollisions 0
scalar SlicingScenario.node[15].nic.phy80211p UnderSensitivityPackets 100
scalar SlicingScenario.node[15].nic.mac1609_4 ReceivedUnicastPackets_CCH 0
scalar SlicingScenario.node[15].nic.mac1609_4 ReceivedBroadcasts_CCH 0
scalar SlicingScenario.node[15].nic.mac1609_4 SentPackets_CCH 0
scalar SlicingScenario.node[15].nic.mac1609_4 SentAcknowledgements_CCH 0
scalar SlicingScenario.node[15].nic.mac1609_4 SNIRLostPackets_CCH 0
scalar SlicingScenario.node[15].nic.mac1609_4 RXTXLostPackets_CCH 0
scalar SlicingScenario.node[15].nic.mac1609_4 TotalLostPackets_CCH 0
scalar SlicingScenario.node[15].nic.mac1609_4 DroppedPacketsInMac_CCH 0
scalar SlicingScenario.node[15].nic.mac1609_4 TooLittleTime_CCH 0
scalar SlicingScenario.node[15].nic.mac1609_4 TimesIntoBackoff_CCH 0
scalar SlicingScenario.node[15].nic.mac1609_4 SlotsBackoff_CCH 0
scalar SlicingScenario.node[15].nic.mac1609_4 NumInternalContention_CCH 0
scalar SlicingScenario.node[15].nic.mac1609_4 RemainingPacketsInEDCA_CCH 0
scalar SlicingScenario.node[15].nic.mac1609_4 totalBusyTime_CCH 0
scalar SlicingScenario.node[15].nic.mac1609_4 ReceivedUnicastPackets_SCH 0
scalar SlicingScenario.node[15].nic.mac1609_4 ReceivedBroadcasts_SCH 863
scalar SlicingScenario.node[15].nic.mac1609_4 SentPackets_SCH 0
scalar SlicingScenario.node[15].nic.mac1609_4 SentAcknowledgements_SCH 0
scalar SlicingScenario.node[15].nic.mac1609_4 SNIRLostPackets_SCH 0
scalar SlicingScenario.node[15].nic.mac1609_4 RXTXLostPackets_SCH 0
scalar SlicingScenario.node[15].nic.mac1609_4 TotalLostPackets_SCH 0
scalar SlicingScenario.node[15].nic.mac1609_4 DroppedPacketsInMac_SCH 0
scalar SlicingScenario.node[15].nic.mac1609_4 TooLittleTime_SCH 0
scalar SlicingScenario.node[15].nic.mac1609_4 TimesIntoBackoff_SCH 0
scalar SlicingScenario.node[15].nic.mac1609_4 SlotsBackoff_SCH 0
scalar SlicingScenario.node[15].nic.mac1609_4 NumInternalContention_SCH 0
scalar SlicingScenario.node[15].nic.mac1609_4 RemainingPacketsInEDCA_SCH 0
scalar SlicingScenario.node[15].nic.mac1609_4 totalBusyTime_SCH 1.781232
scalar SlicingScenario.node[15].veinsmobility startTime 17
scalar SlicingScenario.node[15].veinsmobility totalTime 91
scalar SlicingScenario.node[15].veinsmobility stopTime 109
scalar SlicingScenario.node[15].veinsmobility minSpeed 10.610255455496
scalar SlicingScenario.node[15].veinsmobility maxSpeed 11.105680725435
scalar SlicingScenario.node[15].veinsmobility totalDistance 979.46155254021
scalar SlicingScenario.node[15].veinsmobility totalCO2Emission 159.95081200025
scalar SlicingScenario.node[17].appl txPackets_115 0
scalar SlicingScenario.node[17].appl rxPackets_115 0
scalar SlicingScenario.node[17].appl rxNeighborPackets_115 0
scalar SlicingScenario.node[17].appl meanDelay_115 0
scalar SlicingScenario.node[17].appl meanJitter_115 0
scalar SlicingScenario.node[17].appl meanRxPacketSize_115 0
scalar SlicingScenario.node[17].appl meanTxPacketSize_115 0
scalar SlicingScenario.node[17].appl meanRxThroughput_115 0
scalar SlicingScenario.node[17].appl meanTxThroughput_115 0
scalar SlicingScenario.node[17].appl rxTimeOfService_115 0
scalar SlicingScenario.node[17].appl txTimeOfService_115 0
scalar SlicingScenario.node[17].appl txPackets_40_115 0
scalar SlicingScenario.node[17].appl rxPackets_40_115 23
scalar SlicingScenario.node[17].appl rxNeighborPackets_40_115 393
scalar SlicingScenario.node[17].appl meanDelay_40_115 0.002070753028
scalar SlicingScenario.node[17].appl meanJitter_40_115 9.4245471e-05
scalar SlicingScenario.node[17].appl meanRxPacketSize_40_115 1510
scalar SlicingScenario.node[17].appl meanTxPacketSize_40_115 0
scalar SlicingScenario.node[17].appl meanRxThroughput_40_115 4209.6969432534
scalar SlicingScenario.node[17].appl meanTxThroughput_40_115 0
scalar SlicingScenario.node[17].appl rxTimeOfService_40_115 66.000000414584
scalar SlicingScenario.node[17].appl txTimeOfService_40_115 0
scalar SlicingScenario.node[17].nic.phy80211p busyTime 0.019675304347826
scalar SlicingScenario.node[17].nic.phy80211p ncollisions 0
scalar SlicingScenario.node[17].nic.phy80211p UnderSensitivityPackets 103
scalar SlicingScenario.node[17].nic.mac1609_4 ReceivedUnicastPackets_CCH 0
scalar SlicingScenario.node[17].nic.mac1609_4 ReceivedBroadcasts_CCH 0
scalar SlicingScenario.node[17].nic.mac1609_4 SentPackets_CCH 0
scalar SlicingScenario.node[17].nic.mac1609_4 SentAcknowledgements_CCH 0
scalar SlicingScenario.node[17].nic.mac1609_4 SNIRLostPackets_CCH 0
scalar SlicingScenario.node[17].nic.mac1609_4 RXTXLostPackets_CCH 0
scalar SlicingScenario.node[17].nic.mac1609_4 TotalLostPackets_CCH 0
scalar SlicingScenario.node[17].nic.mac1609_4 DroppedPacketsInMac_CCH 0
scalar SlicingScenario.node[17].nic.mac1609_4 TooLittleTime_CCH 0
scalar SlicingScenario.node[17].nic.mac1609_4 TimesIntoBackoff_CCH 0
scalar SlicingScenario.node[17].nic.mac1609_4 SlotsBackoff_CCH 0
scalar SlicingScenario.node[17].nic.mac1609_4 NumInternalContention_CCH 0
scalar SlicingScenario.node[17].nic.mac1609_4 RemainingPacketsInEDCA_CCH 0
scalar SlicingScenario.node[17].nic.mac1609_4 totalBusyTime_CCH 0
scalar SlicingScenario.node[17].nic.mac1609_4 ReceivedUnicastPackets_SCH 0
scalar SlicingScenario.node[17].nic.mac1609_4 ReceivedBroadcasts_SCH 877
scalar SlicingScenario.node[17].nic.mac1609_4 SentPackets_SCH 0
scalar SlicingScenario.node[17].nic.mac1609_4 SentAcknowledgements_SCH 0
scalar SlicingScenario.node[17].nic.mac1609_4 SNIRLostPackets_SCH 0
scalar SlicingScenario.node[17].nic.mac1609_4 RXTXLostPackets_SCH 0
scalar SlicingScenario.node[17].nic.mac1609_4 TotalLostPackets_SCH 0
scalar SlicingScenario.node[17].nic.mac1609_4 DroppedPacketsInMac_SCH 0
scalar SlicingScenario.node[17].nic.mac1609_4 TooLittleTime_SCH 0
scalar SlicingScenario.node[17].nic.mac1609_4 TimesIntoBackoff_SCH 0
scalar SlicingScenario.node[17].nic.mac1609_4 SlotsBackoff_SCH 0
scalar SlicingScenario.node[17].nic.mac1609_4 NumInternalContention_SCH 0
scalar SlicingScenario.node[17].nic.mac1609_4 RemainingPacketsInEDCA_SCH 0
scalar SlicingScenario.node[17].nic.mac1609_4 totalBusyTime_SCH 1.810128
scalar SlicingScenario.node[17].veinsmobility startTime 18
scalar SlicingScenario.node[17].veinsmobility totalTime 91
scalar SlicingScenario.node[17].veinsmobility stopTime 110
scalar SlicingScenario.node[17].veinsmobility minSpeed 10.610442227931
scalar SlicingScenario.node[17].veinsmobility maxSpeed 11.109651143793
scalar SlicingScenario.node[17].veinsmobility totalDistance 978.26820893192
scalar SlicingScenario.node[17].veinsmobility totalCO2Emission 159.34494113466
scalar SlicingScenario.node[14].appl txPackets_97 0
scalar SlicingScenario.node[14].appl rxPackets_97 0
scalar SlicingScenario.node[14].appl rxNeighborPackets_97 0
scalar SlicingScenario.node[14].appl meanDelay_97 0
scalar SlicingScenario.node[14].appl meanJitter_97 0
scalar SlicingScenario.node[14].appl meanRxPacketSize_97 0
scalar SlicingScenario.node[14].appl meanTxPacketSize_97 0
scalar SlicingScenario.node[14].appl meanRxThroughput_97 0
scalar SlicingScenario.node[14].appl meanTxThroughput_97 0
scalar SlicingScenario.node[14].appl rxTimeOfService_97 0
scalar SlicingScenario.node[14].appl txTimeOfService_97 0
scalar SlicingScenario.node[14].appl txPackets_41_97 0
scalar SlicingScenario.node[14].appl rxPackets_41_97 25
scalar SlicingScenario.node[14].appl rxNeighborPackets_41_97 437
scalar SlicingScenario.node[14].appl meanDelay_41_97 0.005141123035
scalar SlicingScenario.node[14].appl meanJitter_41_97 0.000250003088
scalar SlicingScenario.node[14].appl meanRxPacketSize_41_97 1510
scalar SlicingScenario.node[14].appl meanTxPacketSize_41_97 0
scalar SlicingScenario.node[14].appl meanRxThroughput_41_97 4194.4421581706
scalar SlicingScenario.node[14].appl meanTxThroughput_41_97 0
scalar SlicingScenario.node[14].appl rxTimeOfService_41_97 72.000039245199
scalar SlicingScenario.node[14].appl txTimeOfService_41_97 0
scalar SlicingScenario.node[14].nic.phy80211p busyTime 0.019119157894737
scalar SlicingScenario.node[14].nic.phy80211p ncollisions 0
scalar SlicingScenario.node[14].nic.phy80211p UnderSensitivityPackets 108
scalar SlicingScenario.node[14].nic.mac1609_4 ReceivedUnicastPackets_CCH 0
scalar SlicingScenario.node[14].nic.mac1609_4 ReceivedBroadcasts_CCH 0
scalar SlicingScenario.node[14].nic.mac1609_4 SentPackets_CCH 0
scalar SlicingScenario.node[14].nic.mac1609_4 SentAcknowledgements_CCH 0
scalar SlicingScenario.node[14].nic.mac1609_4 SNIRLostPackets_CCH 0
scalar SlicingScenario.node[14].nic.mac1609_4 RXTXLostPackets_CCH 0
scalar SlicingScenario.node[14].nic.mac1609_4 TotalLostPackets_CCH 0
scalar SlicingScenario.node[14].nic.mac1609_4 DroppedPacketsInMac_CCH 0
scalar SlicingScenario.node[14].nic.mac1609_4 TooLittleTime_CCH 0
scalar SlicingScenario.node[14].nic.mac1609_4 TimesIntoBackoff_CCH 0
scalar SlicingScenario.node[14].nic.mac1609_4 SlotsBackoff_CCH 0
scalar SlicingScenario.node[14].nic.mac1609_4 NumInternalContention_CCH 0
scalar SlicingScenario.node[14].nic.mac1609_4 RemainingPacketsInEDCA_CCH 0
scalar SlicingScenario.node[14].nic.mac1609_4 totalBusyTime_CCH 0
scalar SlicingScenario.node[14].nic.mac1609_4 ReceivedUnicastPackets_SCH 0
scalar SlicingScenario.node[14].nic.mac1609_4 ReceivedBroadcasts_SCH 880
scalar SlicingScenario.node[14].nic.mac1609_4 SentPackets_SCH 0
scalar SlicingScenario.node[14].nic.mac1609_4 SentAcknowledgements_SCH 0
scalar SlicingScenario.node[14].nic.mac1609_4 SNIRLostPackets_SCH 0
scalar SlicingScenario.node[14].nic.mac1609_4 RXTXLostPackets_SCH 0
scalar SlicingScenario.node[14].nic.mac1609_4 TotalLostPackets_SCH 0
scalar SlicingScenario.node[14].nic.mac1609_4 DroppedPacketsInMac_SCH 0
scalar SlicingScenario.node[14].nic.mac1609_4 TooLittleTime_SCH 0
scalar SlicingScenario.node[14].nic.mac1609_4 TimesIntoBackoff_SCH 0
scalar SlicingScenario.node[14].nic.mac1609_4 SlotsBackoff_SCH 0
scalar SlicingScenario.node[14].nic.mac1609_4 NumInternalContention_SCH 0
scalar SlicingScenario.node[14].nic.mac1609_4 RemainingPacketsInEDCA_SCH 0
scalar SlicingScenario.node[14].nic.mac1609_4 totalBusyTime_SCH 1.81632
scalar SlicingScenario.node[14].veinsmobility startTime 15
scalar SlicingScenario.node[14].veinsmobility totalTime 94
scalar SlicingScenario.node[14].veinsmobility stopTime 110
scalar SlicingScenario.node[14].veinsmobility minSpeed 5.5247319171422
scalar SlicingScenario.node[14].veinsmobility maxSpeed 11.101465141182
scalar SlicingScenario.node[14].veinsmobility totalDistance 986.16212259846
scalar SlicingScenario.node[14].veinsmobility totalCO2Emission 173.5933832109
scalar SlicingScenario.node[16].appl txPackets_109 0
scalar SlicingScenario.node[16].appl rxPackets_109 0
scalar SlicingScenario.node[16].appl rxNeighborPackets_109 0
scalar SlicingScenario.node[16].appl meanDelay_109 0
scalar SlicingScenario.node[16].appl meanJitter_109 0
scalar SlicingScenario.node[16].appl meanRxPacketSize_109 0
scalar SlicingScenario.node[16].appl meanTxPacketSize_109 0
scalar SlicingScenario.node[16].appl meanRxThroughput_109 0
scalar SlicingScenario.node[16].appl meanTxThroughput_109 0
scalar SlicingScenario.node[16].appl rxTimeOfService_109 0
scalar SlicingScenario.node[16].appl txTimeOfService_109 0
scalar SlicingScenario.node[16].appl txPackets_40_109 0
scalar SlicingScenario.node[16].appl rxPackets_40_109 24
scalar SlicingScenario.node[16].appl rxNeighborPackets_40_109 399
scalar SlicingScenario.node[16].appl meanDelay_40_109 0.002069546409
scalar SlicingScenario.node[16].appl meanJitter_40_109 9.0104837e-05
scalar SlicingScenario.node[16].appl meanRxPacketSize_40_109 1510
scalar SlicingScenario.node[16].appl meanTxPacketSize_40_109 0
scalar SlicingScenario.node[16].appl meanRxThroughput_40_109 4201.7391119561
scalar SlicingScenario.node[16].appl meanTxThroughput_40_109 0
scalar SlicingScenario.node[16].appl rxTimeOfService_40_109 69.000000303453
scalar SlicingScenario.node[16].appl txTimeOfService_40_109 0
scalar SlicingScenario.node[16].nic.phy80211p busyTime 0.019542127659575
scalar SlicingScenario.node[16].nic.phy80211p ncollisions 0
scalar SlicingScenario.node[16].nic.phy80211p UnderSensitivityPackets 111
scalar SlicingScenario.node[16].nic.mac1609_4 ReceivedUnicastPackets_CCH 0
scalar SlicingScenario.node[16].nic.mac1609_4 ReceivedBroadcasts_CCH 0
scalar SlicingScenario.node[16].nic.mac1609_4 SentPackets_CCH 0
scalar SlicingScenario.node[16].nic.mac1609_4 SentAcknowledgements_CCH 0
scalar SlicingScenario.node[16].nic.mac1609_4 SNIRLostPackets_CCH 0
scalar SlicingScenario.node[16].nic.mac1609_4 RXTXLostPackets_CCH 0
scalar SlicingScenario.node[16].nic.mac1609_4 TotalLostPackets_CCH 0
scalar SlicingScenario.node[16].nic.mac1609_4 DroppedPacketsInMac_CCH 0
scalar SlicingScenario.node[16].nic.mac1609_4 TooLittleTime_CCH 0
scalar SlicingScenario.node[16].nic.mac1609_4 TimesIntoBackoff_CCH 0
scalar SlicingScenario.node[16].nic.mac1609_4 SlotsBackoff_CCH 0
scalar SlicingScenario.node[16].nic.mac1609_4 NumInternalContention_CCH 0
scalar SlicingScenario.node[16].nic.mac1609_4 RemainingPacketsInEDCA_CCH 0
scalar SlicingScenario.node[16].nic.mac1609_4 totalBusyTime_CCH 0
scalar SlicingScenario.node[16].nic.mac1609_4 ReceivedUnicastPackets_SCH 0
scalar SlicingScenario.node[16].nic.mac1609_4 ReceivedBroadcasts_SCH 890
scalar SlicingScenario.node[16].nic.mac1609_4 SentPackets_SCH 0
scalar SlicingScenario.node[16].nic.mac1609_4 SentAcknowledgements_SCH 0
scalar SlicingScenario.node[16].nic.mac1609_4 SNIRLostPackets_SCH 0
scalar SlicingScenario.node[16].nic.mac1609_4 RXTXLostPackets_SCH 0
scalar SlicingScenario.node[16].nic.mac1609_4 TotalLostPackets_SCH 0
scalar SlicingScenario.node[16].nic.mac1609_4 DroppedPacketsInMac_SCH 0
scalar SlicingScenario.node[16].nic.mac1609_4 TooLittleTime_SCH 0
scalar SlicingScenario.node[16].nic.mac1609_4 TimesIntoBackoff_SCH 0
scalar SlicingScenario.node[16].nic.mac1609_4 SlotsBackoff_SCH 0
scalar SlicingScenario.node[16].nic.mac1609_4 NumInternalContention_SCH 0
scalar SlicingScenario.node[16].nic.mac1609_4 RemainingPacketsInEDCA_SCH 0
scalar SlicingScenario.node[16].nic.mac1609_4 totalBusyTime_SCH 1.83696
scalar SlicingScenario.node[16].veinsmobility startTime 17
scalar SlicingScenario.node[16].veinsmobility totalTime 93
scalar SlicingScenario.node[16].veinsmobility stopTime 111
scalar SlicingScenario.node[16].veinsmobility minSpeed 5.4836976251778
scalar SlicingScenario.node[16].veinsmobility maxSpeed 11.108272023979
scalar SlicingScenario.node[16].veinsmobility totalDistance 978.45551142369
scalar SlicingScenario.node[16].veinsmobility totalCO2Emission 174.21396460319
scalar SlicingScenario.node[18].appl txPackets_121 0
scalar SlicingScenario.node[18].appl rxPackets_121 0
scalar SlicingScenario.node[18].appl rxNeighborPackets_121 0
scalar SlicingScenario.node[18].appl meanDelay_121 0
scalar SlicingScenario.node[18].appl meanJitter_121 0
scalar SlicingScenario.node[18].appl meanRxPacketSize_121 0
scalar SlicingScenario.node[18].appl meanTxPacketSize_121 0
scalar SlicingScenario.node[18].appl meanRxThroughput_121 0
scalar SlicingScenario.node[18].appl meanTxThroughput_121 0
scalar SlicingScenario.node[18].appl rxTimeOfService_121 0
scalar SlicingScenario.node[18].appl txTimeOfService_121 0
scalar SlicingScenario.node[18].appl txPackets_40_121 0
scalar SlicingScenario.node[18].appl rxPackets_40_121 23
scalar SlicingScenario.node[18].appl rxNeighborPackets_40_121 406
scalar SlicingScenario.node[18].appl meanDelay_40_121 0.002077136674
scalar SlicingScenario.node[18].appl meanJitter_40_121 9.453552e-05
scalar SlicingScenario.node[18].appl meanRxPacketSize_40_121 1510
scalar SlicingScenario.node[18].appl meanTxPacketSize_40_121 0
scalar SlicingScenario.node[18].appl meanRxThroughput_40_121 4209.6969420842
scalar SlicingScenario.node[18].appl meanTxThroughput_40_121 0
scalar SlicingScenario.node[18].appl rxTimeOfService_40_121 66.000000432916
scalar SlicingScenario.node[18].appl txTimeOfService_40_121 0
scalar SlicingScenario.node[18].nic.phy80211p busyTime 0.020085161290323
scalar SlicingScenario.node[18].nic.phy80211p ncollisions 0
scalar SlicingScenario.node[18].nic.phy80211p UnderSensitivityPackets 107
scalar SlicingScenario.node[18].nic.mac1609_4 ReceivedUnicastPackets_CCH 0
scalar SlicingScenario.node[18].nic.mac1609_4 ReceivedBroadcasts_CCH 0
scalar SlicingScenario.node[18].nic.mac1609_4 SentPackets_CCH 0
scalar SlicingScenario.node[18].nic.mac1609_4 SentAcknowledgements_CCH 0
scalar SlicingScenario.node[18].nic.mac1609_4 SNIRLostPackets_CCH 0
scalar SlicingScenario.node[18].nic.mac1609_4 RXTXLostPackets_CCH 0
scalar SlicingScenario.node[18].nic.mac1609_4 TotalLostPackets_CCH 0
scalar SlicingScenario.node[18].nic.mac1609_4 DroppedPacketsInMac_CCH 0
scalar SlicingScenario.node[18].nic.mac1609_4 TooLittleTime_CCH 0
scalar SlicingScenario.node[18].nic.mac1609_4 TimesIntoBackoff_CCH 0
scalar SlicingScenario.node[18].nic.mac1609_4 SlotsBackoff_CCH 0
scalar SlicingScenario.node[18].nic.mac1609_4 NumInternalContention_CCH 0
scalar SlicingScenario.node[18].nic.mac1609_4 RemainingPacketsInEDCA_CCH 0
scalar SlicingScenario.node[18].nic.mac1609_4 totalBusyTime_CCH 0
scalar SlicingScenario.node[18].nic.mac1609_4 ReceivedUnicastPackets_SCH 0
scalar SlicingScenario.node[18].nic.mac1609_4 ReceivedBroadcasts_SCH 905
scalar SlicingScenario.node[18].nic.mac1609_4 SentPackets_SCH 0
scalar SlicingScenario.node[18].nic.mac1609_4 SentAcknowledgements_SCH 0
scalar SlicingScenario.node[18].nic.mac1609_4 SNIRLostPackets_SCH 0
scalar SlicingScenario.node[18].nic.mac1609_4 RXTXLostPackets_SCH 0
scalar SlicingScenario.node[18].nic.mac1609_4 TotalLostPackets_SCH 0
scalar SlicingScenario.node[18].nic.mac1609_4 DroppedPacketsInMac_SCH 0
scalar SlicingScenario.node[18].nic.mac1609_4 TooLittleTime_SCH 0
scalar SlicingScenario.node[18].nic.mac1609_4 TimesIntoBackoff_SCH 0
scalar SlicingScenario.node[18].nic.mac1609_4 SlotsBackoff_SCH 0
scalar SlicingScenario.node[18].nic.mac1609_4 NumInternalContention_SCH 0
scalar SlicingScenario.node[18].nic.mac1609_4 RemainingPacketsInEDCA_SCH 0
scalar SlicingScenario.node[18].nic.mac1609_4 totalBusyTime_SCH 1.86792
scalar SlicingScenario.node[18].veinsmobility startTime 19
scalar SlicingScenario.node[18].veinsmobility totalTime 92
scalar SlicingScenario.node[18].veinsmobility stopTime 112
scalar SlicingScenario.node[18].veinsmobility minSpeed 7.9758482329645
scalar SlicingScenario.node[18].veinsmobility maxSpeed 11.108881279607
scalar SlicingScenario.node[18].veinsmobility totalDistance 981.7608231447
scalar SlicingScenario.node[18].veinsmobility totalCO2Emission 165.83999048733
scalar SlicingScenario.node[20].appl txPackets_133 0
scalar SlicingScenario.node[20].appl rxPackets_133 0
scalar SlicingScenario.node[20].appl rxNeighborPackets_133 0
scalar SlicingScenario.node[20].appl meanDelay_133 0
scalar SlicingScenario.node[20].appl meanJitter_133 0
scalar SlicingScenario.node[20].appl meanRxPacketSize_133 0
scalar SlicingScenario.node[20].appl meanTxPacketSize_133 0
scalar SlicingScenario.node[20].appl meanRxThroughput_133 0
scalar SlicingScenario.node[20].appl meanTxThroughput_133 0
scalar SlicingScenario.node[20].appl rxTimeOfService_133 0
scalar SlicingScenario.node[20].appl txTimeOfService_133 0
scalar SlicingScenario.node[20].appl txPackets_41_133 0
scalar SlicingScenario.node[20].appl rxPackets_41_133 22
scalar SlicingScenario.node[20].appl rxNeighborPackets_41_133 463
scalar SlicingScenario.node[20].appl meanDelay_41_133 0.002072039399
scalar SlicingScenario.node[20].appl meanJitter_41_133 9.8784559e-05
scalar SlicingScenario.node[20].appl meanRxPacketSize_41_133 1510
scalar SlicingScenario.node[20].appl meanTxPacketSize_41_133 0
scalar SlicingScenario.node[20].appl meanRxThroughput_41_133 4218.4126635408
scalar SlicingScenario.node[20].appl meanTxThroughput_41_133 0
scalar SlicingScenario.node[20].appl rxTimeOfService_41_133 63.000000520796
scalar SlicingScenario.node[20].appl txTimeOfService_41_133 0
scalar SlicingScenario.node[20].nic.phy80211p busyTime 0.020617565217392
scalar SlicingScenario.node[20].nic.phy80211p ncollisions 0
scalar SlicingScenario.node[20].nic.phy80211p UnderSensitivityPackets 107
scalar SlicingScenario.node[20].nic.mac1609_4 ReceivedUnicastPackets_CCH 0
scalar SlicingScenario.node[20].nic.mac1609_4 ReceivedBroadcasts_CCH 0
scalar SlicingScenario.node[20].nic.mac1609_4 SentPackets_CCH 0
[...]
scalar SlicingScenario.rsu[0].appl rxPackets_41_265 0
scalar SlicingScenario.rsu[0].appl rxNeighborPackets_41_265 0
scalar SlicingScenario.rsu[0].appl meanDelay_41_265 0
scalar SlicingScenario.rsu[0].appl meanJitter_41_265 0
scalar SlicingScenario.rsu[0].appl meanRxPacketSize_41_265 0
scalar SlicingScenario.rsu[0].appl meanTxPacketSize_41_265 1510
scalar SlicingScenario.rsu[0].appl meanRxThroughput_41_265 0
scalar SlicingScenario.rsu[0].appl meanTxThroughput_41_265 4056.0583941606
scalar SlicingScenario.rsu[0].appl rxTimeOfService_41_265 0
scalar SlicingScenario.rsu[0].appl txTimeOfService_41_265 411
scalar SlicingScenario.rsu[0].appl txPackets_41_271 138
scalar SlicingScenario.rsu[0].appl rxPackets_41_271 0
scalar SlicingScenario.rsu[0].appl rxNeighborPackets_41_271 0
scalar SlicingScenario.rsu[0].appl meanDelay_41_271 0
scalar SlicingScenario.rsu[0].appl meanJitter_41_271 0
scalar SlicingScenario.rsu[0].appl meanRxPacketSize_41_271 0
scalar SlicingScenario.rsu[0].appl meanTxPacketSize_41_271 1510
scalar SlicingScenario.rsu[0].appl meanRxThroughput_41_271 0
scalar SlicingScenario.rsu[0].appl meanTxThroughput_41_271 4056.0583941606
scalar SlicingScenario.rsu[0].appl rxTimeOfService_41_271 0
scalar SlicingScenario.rsu[0].appl txTimeOfService_41_271 411
scalar SlicingScenario.rsu[0].appl txPackets_41_277 137
scalar SlicingScenario.rsu[0].appl rxPackets_41_277 0
scalar SlicingScenario.rsu[0].appl rxNeighborPackets_41_277 0
scalar SlicingScenario.rsu[0].appl meanDelay_41_277 0
scalar SlicingScenario.rsu[0].appl meanJitter_41_277 0
scalar SlicingScenario.rsu[0].appl meanRxPacketSize_41_277 0
scalar SlicingScenario.rsu[0].appl meanTxPacketSize_41_277 1510
scalar SlicingScenario.rsu[0].appl meanRxThroughput_41_277 0
scalar SlicingScenario.rsu[0].appl meanTxThroughput_41_277 4056.2745098039
scalar SlicingScenario.rsu[0].appl rxTimeOfService_41_277 0
scalar SlicingScenario.rsu[0].appl txTimeOfService_41_277 408
scalar SlicingScenario.rsu[0].appl txPackets_41_283 136
scalar SlicingScenario.rsu[0].appl rxPackets_41_283 0
scalar SlicingScenario.rsu[0].appl rxNeighborPackets_41_283 0
scalar SlicingScenario.rsu[0].appl meanDelay_41_283 0
scalar SlicingScenario.rsu[0].appl meanJitter_41_283 0
scalar SlicingScenario.rsu[0].appl meanRxPacketSize_41_283 0
scalar SlicingScenario.rsu[0].appl meanTxPacketSize_41_283 1510
scalar SlicingScenario.rsu[0].appl meanRxThroughput_41_283 0
scalar SlicingScenario.rsu[0].appl meanTxThroughput_41_283 4056.4938271605
scalar SlicingScenario.rsu[0].appl rxTimeOfService_41_283 0
scalar SlicingScenario.rsu[0].appl txTimeOfService_41_283 405
scalar SlicingScenario.rsu[0].appl txPackets_41_301 134
scalar SlicingScenario.rsu[0].appl rxPackets_41_301 0
scalar SlicingScenario.rsu[0].appl rxNeighborPackets_41_301 0
scalar SlicingScenario.rsu[0].appl meanDelay_41_301 0
scalar SlicingScenario.rsu[0].appl meanJitter_41_301 0
scalar SlicingScenario.rsu[0].appl meanRxPacketSize_41_301 0
scalar SlicingScenario.rsu[0].appl meanTxPacketSize_41_301 1510
scalar SlicingScenario.rsu[0].appl meanRxThroughput_41_301 0
scalar SlicingScenario.rsu[0].appl meanTxThroughput_41_301 4056.9423558897
scalar SlicingScenario.rsu[0].appl rxTimeOfService_41_301 0
scalar SlicingScenario.rsu[0].appl txTimeOfService_41_301 399
scalar SlicingScenario.rsu[0].appl txPackets_41_307 134
scalar SlicingScenario.rsu[0].appl rxPackets_41_307 0
scalar SlicingScenario.rsu[0].appl rxNeighborPackets_41_307 0
scalar SlicingScenario.rsu[0].appl meanDelay_41_307 0
scalar SlicingScenario.rsu[0].appl meanJitter_41_307 0
scalar SlicingScenario.rsu[0].appl meanRxPacketSize_41_307 0
scalar SlicingScenario.rsu[0].appl meanTxPacketSize_41_307 1510
scalar SlicingScenario.rsu[0].appl meanRxThroughput_41_307 0
scalar SlicingScenario.rsu[0].appl meanTxThroughput_41_307 4056.9423558897
scalar SlicingScenario.rsu[0].appl rxTimeOfService_41_307 0
scalar SlicingScenario.rsu[0].appl txTimeOfService_41_307 399
scalar SlicingScenario.rsu[0].appl txPackets_41_313 133
scalar SlicingScenario.rsu[0].appl rxPackets_41_313 0
scalar SlicingScenario.rsu[0].appl rxNeighborPackets_41_313 0
scalar SlicingScenario.rsu[0].appl meanDelay_41_313 0
scalar SlicingScenario.rsu[0].appl meanJitter_41_313 0
scalar SlicingScenario.rsu[0].appl meanRxPacketSize_41_313 0
scalar SlicingScenario.rsu[0].appl meanTxPacketSize_41_313 1510
scalar SlicingScenario.rsu[0].appl meanRxThroughput_41_313 0
scalar SlicingScenario.rsu[0].appl meanTxThroughput_41_313 4057.1717171717
scalar SlicingScenario.rsu[0].appl rxTimeOfService_41_313 0
scalar SlicingScenario.rsu[0].appl txTimeOfService_41_313 396
scalar SlicingScenario.rsu[0].appl txPackets_41_319 132
scalar SlicingScenario.rsu[0].appl rxPackets_41_319 0
scalar SlicingScenario.rsu[0].appl rxNeighborPackets_41_319 0
scalar SlicingScenario.rsu[0].appl meanDelay_41_319 0
scalar SlicingScenario.rsu[0].appl meanJitter_41_319 0
scalar SlicingScenario.rsu[0].appl meanRxPacketSize_41_319 0
scalar SlicingScenario.rsu[0].appl meanTxPacketSize_41_319 1510
scalar SlicingScenario.rsu[0].appl meanRxThroughput_41_319 0
scalar SlicingScenario.rsu[0].appl meanTxThroughput_41_319 4057.4045801527
scalar SlicingScenario.rsu[0].appl rxTimeOfService_41_319 0
scalar SlicingScenario.rsu[0].appl txTimeOfService_41_319 393
scalar SlicingScenario.rsu[0].appl txPackets_41_325 132
scalar SlicingScenario.rsu[0].appl rxPackets_41_325 0
scalar SlicingScenario.rsu[0].appl rxNeighborPackets_41_325 0
scalar SlicingScenario.rsu[0].appl meanDelay_41_325 0
scalar SlicingScenario.rsu[0].appl meanJitter_41_325 0
scalar SlicingScenario.rsu[0].appl meanRxPacketSize_41_325 0
scalar SlicingScenario.rsu[0].appl meanTxPacketSize_41_325 1510
scalar SlicingScenario.rsu[0].appl meanRxThroughput_41_325 0
scalar SlicingScenario.rsu[0].appl meanTxThroughput_41_325 4057.4045801527
scalar SlicingScenario.rsu[0].appl rxTimeOfService_41_325 0
scalar SlicingScenario.rsu[0].appl txTimeOfService_41_325 393
scalar SlicingScenario.rsu[0].appl txPackets_41_331 131
scalar SlicingScenario.rsu[0].appl rxPackets_41_331 0
scalar SlicingScenario.rsu[0].appl rxNeighborPackets_41_331 0
scalar SlicingScenario.rsu[0].appl meanDelay_41_331 0
scalar SlicingScenario.rsu[0].appl meanJitter_41_331 0
scalar SlicingScenario.rsu[0].appl meanRxPacketSize_41_331 0
scalar SlicingScenario.rsu[0].appl meanTxPacketSize_41_331 1510
scalar SlicingScenario.rsu[0].appl meanRxThroughput_41_331 0
scalar SlicingScenario.rsu[0].appl meanTxThroughput_41_331 4057.641025641
scalar SlicingScenario.rsu[0].appl rxTimeOfService_41_331 0
scalar SlicingScenario.rsu[0].appl txTimeOfService_41_331 390
scalar SlicingScenario.rsu[0].appl txPackets_41_349 129
scalar SlicingScenario.rsu[0].appl rxPackets_41_349 0
scalar SlicingScenario.rsu[0].appl rxNeighborPackets_41_349 0
scalar SlicingScenario.rsu[0].appl meanDelay_41_349 0
scalar SlicingScenario.rsu[0].appl meanJitter_41_349 0
scalar SlicingScenario.rsu[0].appl meanRxPacketSize_41_349 0
scalar SlicingScenario.rsu[0].appl meanTxPacketSize_41_349 1510
scalar SlicingScenario.rsu[0].appl meanRxThroughput_41_349 0
scalar SlicingScenario.rsu[0].appl meanTxThroughput_41_349 4058.125
scalar SlicingScenario.rsu[0].appl rxTimeOfService_41_349 0
scalar SlicingScenario.rsu[0].appl txTimeOfService_41_349 384
scalar SlicingScenario.rsu[0].appl txPackets_41_355 128
scalar SlicingScenario.rsu[0].appl rxPackets_41_355 0
scalar SlicingScenario.rsu[0].appl rxNeighborPackets_41_355 0
scalar SlicingScenario.rsu[0].appl meanDelay_41_355 0
scalar SlicingScenario.rsu[0].appl meanJitter_41_355 0
scalar SlicingScenario.rsu[0].appl meanRxPacketSize_41_355 0
scalar SlicingScenario.rsu[0].appl meanTxPacketSize_41_355 1510
scalar SlicingScenario.rsu[0].appl meanRxThroughput_41_355 0
scalar SlicingScenario.rsu[0].appl meanTxThroughput_41_355 4058.3727034121
scalar SlicingScenario.rsu[0].appl rxTimeOfService_41_355 0
scalar SlicingScenario.rsu[0].appl txTimeOfService_41_355 381
scalar SlicingScenario.rsu[0].appl txPackets_41_367 127
scalar SlicingScenario.rsu[0].appl rxPackets_41_367 0
scalar SlicingScenario.rsu[0].appl rxNeighborPackets_41_367 0
scalar SlicingScenario.rsu[0].appl meanDelay_41_367 0
scalar SlicingScenario.rsu[0].appl meanJitter_41_367 0
scalar SlicingScenario.rsu[0].appl meanRxPacketSize_41_367 0
scalar SlicingScenario.rsu[0].appl meanTxPacketSize_41_367 1510
scalar SlicingScenario.rsu[0].appl meanRxThroughput_41_367 0
scalar SlicingScenario.rsu[0].appl meanTxThroughput_41_367 4058.6243386243
scalar SlicingScenario.rsu[0].appl rxTimeOfService_41_367 0
scalar SlicingScenario.rsu[0].appl txTimeOfService_41_367 378
scalar SlicingScenario.rsu[0].appl txPackets_41_373 126
scalar SlicingScenario.rsu[0].appl rxPackets_41_373 0
scalar SlicingScenario.rsu[0].appl rxNeighborPackets_41_373 0
scalar SlicingScenario.rsu[0].appl meanDelay_41_373 0
scalar SlicingScenario.rsu[0].appl meanJitter_41_373 0
scalar SlicingScenario.rsu[0].appl meanRxPacketSize_41_373 0
scalar SlicingScenario.rsu[0].appl meanTxPacketSize_41_373 1510
scalar SlicingScenario.rsu[0].appl meanRxThroughput_41_373 0
scalar SlicingScenario.rsu[0].appl meanTxThroughput_41_373 4058.88
scalar SlicingScenario.rsu[0].appl rxTimeOfService_41_373 0
scalar SlicingScenario.rsu[0].appl txTimeOfService_41_373 375
scalar SlicingScenario.rsu[0].appl txPackets_41_379 125
scalar SlicingScenario.rsu[0].appl rxPackets_41_379 0
scalar SlicingScenario.rsu[0].appl rxNeighborPackets_41_379 0
scalar SlicingScenario.rsu[0].appl meanDelay_41_379 0
scalar SlicingScenario.rsu[0].appl meanJitter_41_379 0
scalar SlicingScenario.rsu[0].appl meanRxPacketSize_41_379 0
scalar SlicingScenario.rsu[0].appl meanTxPacketSize_41_379 1510
scalar SlicingScenario.rsu[0].appl meanRxThroughput_41_379 0
scalar SlicingScenario.rsu[0].appl meanTxThroughput_41_379 4059.1397849462
scalar SlicingScenario.rsu[0].appl rxTimeOfService_41_379 0
scalar SlicingScenario.rsu[0].appl txTimeOfService_41_379 372
scalar SlicingScenario.rsu[0].appl txPackets_41_391 124
scalar SlicingScenario.rsu[0].appl rxPackets_41_391 0
scalar SlicingScenario.rsu[0].appl rxNeighborPackets_41_391 0
scalar SlicingScenario.rsu[0].appl meanDelay_41_391 0
scalar SlicingScenario.rsu[0].appl meanJitter_41_391 0
scalar SlicingScenario.rsu[0].appl meanRxPacketSize_41_391 0
scalar SlicingScenario.rsu[0].appl meanTxPacketSize_41_391 1510
scalar SlicingScenario.rsu[0].appl meanRxThroughput_41_391 0
scalar SlicingScenario.rsu[0].appl meanTxThroughput_41_391 4059.4037940379
scalar SlicingScenario.rsu[0].appl rxTimeOfService_41_391 0
scalar SlicingScenario.rsu[0].appl txTimeOfService_41_391 369
scalar SlicingScenario.rsu[0].appl txPackets_41_397 124
scalar SlicingScenario.rsu[0].appl rxPackets_41_397 0
scalar SlicingScenario.rsu[0].appl rxNeighborPackets_41_397 0
scalar SlicingScenario.rsu[0].appl meanDelay_41_397 0
scalar SlicingScenario.rsu[0].appl meanJitter_41_397 0
scalar SlicingScenario.rsu[0].appl meanRxPacketSize_41_397 0
scalar SlicingScenario.rsu[0].appl meanTxPacketSize_41_397 1510
scalar SlicingScenario.rsu[0].appl meanRxThroughput_41_397 0
scalar SlicingScenario.rsu[0].appl meanTxThroughput_41_397 4059.4037940379
scalar SlicingScenario.rsu[0].appl rxTimeOfService_41_397 0
scalar SlicingScenario.rsu[0].appl txTimeOfService_41_397 369
scalar SlicingScenario.rsu[0].appl txPackets_41_409 122
scalar SlicingScenario.rsu[0].appl rxPackets_41_409 0
scalar SlicingScenario.rsu[0].appl rxNeighborPackets_41_409 0
scalar SlicingScenario.rsu[0].appl meanDelay_41_409 0
scalar SlicingScenario.rsu[0].appl meanJitter_41_409 0
scalar SlicingScenario.rsu[0].appl meanRxPacketSize_41_409 0
scalar SlicingScenario.rsu[0].appl meanTxPacketSize_41_409 1510
scalar SlicingScenario.rsu[0].appl meanRxThroughput_41_409 0
scalar SlicingScenario.rsu[0].appl meanTxThroughput_41_409 4059.9449035813
scalar SlicingScenario.rsu[0].appl rxTimeOfService_41_409 0
scalar SlicingScenario.rsu[0].appl txTimeOfService_41_409 363
scalar SlicingScenario.rsu[0].appl txPackets_41_421 121
scalar SlicingScenario.rsu[0].appl rxPackets_41_421 0
scalar SlicingScenario.rsu[0].appl rxNeighborPackets_41_421 0
scalar SlicingScenario.rsu[0].appl meanDelay_41_421 0
scalar SlicingScenario.rsu[0].appl meanJitter_41_421 0
scalar SlicingScenario.rsu[0].appl meanRxPacketSize_41_421 0
scalar SlicingScenario.rsu[0].appl meanTxPacketSize_41_421 1510
scalar SlicingScenario.rsu[0].appl meanRxThroughput_41_421 0
scalar SlicingScenario.rsu[0].appl meanTxThroughput_41_421 4060.2222222222
scalar SlicingScenario.rsu[0].appl rxTimeOfService_41_421 0
scalar SlicingScenario.rsu[0].appl txTimeOfService_41_421 360
scalar SlicingScenario.rsu[0].appl txPackets_41_433 120
scalar SlicingScenario.rsu[0].appl rxPackets_41_433 0
scalar SlicingScenario.rsu[0].appl rxNeighborPackets_41_433 0
scalar SlicingScenario.rsu[0].appl meanDelay_41_433 0
scalar SlicingScenario.rsu[0].appl meanJitter_41_433 0
scalar SlicingScenario.rsu[0].appl meanRxPacketSize_41_433 0
scalar SlicingScenario.rsu[0].appl meanTxPacketSize_41_433 1510
scalar SlicingScenario.rsu[0].appl meanRxThroughput_41_433 0
scalar SlicingScenario.rsu[0].appl meanTxThroughput_41_433 4060.5042016807
scalar SlicingScenario.rsu[0].appl rxTimeOfService_41_433 0
scalar SlicingScenario.rsu[0].appl txTimeOfService_41_433 357
scalar SlicingScenario.rsu[0].appl txPackets_41_439 119
scalar SlicingScenario.rsu[0].appl rxPackets_41_439 0
scalar SlicingScenario.rsu[0].appl rxNeighborPackets_41_439 0
scalar SlicingScenario.rsu[0].appl meanDelay_41_439 0
scalar SlicingScenario.rsu[0].appl meanJitter_41_439 0
scalar SlicingScenario.rsu[0].appl meanRxPacketSize_41_439 0
scalar SlicingScenario.rsu[0].appl meanTxPacketSize_41_439 1510
scalar SlicingScenario.rsu[0].appl meanRxThroughput_41_439 0
scalar SlicingScenario.rsu[0].appl meanTxThroughput_41_439 4060.790960452
scalar SlicingScenario.rsu[0].appl rxTimeOfService_41_439 0
scalar SlicingScenario.rsu[0].appl txTimeOfService_41_439 354
scalar SlicingScenario.rsu[0].appl txPackets_41_451 118
scalar SlicingScenario.rsu[0].appl rxPackets_41_451 0
scalar SlicingScenario.rsu[0].appl rxNeighborPackets_41_451 0
scalar SlicingScenario.rsu[0].appl meanDelay_41_451 0
scalar SlicingScenario.rsu[0].appl meanJitter_41_451 0
scalar SlicingScenario.rsu[0].appl meanRxPacketSize_41_451 0
scalar SlicingScenario.rsu[0].appl meanTxPacketSize_41_451 1510
scalar SlicingScenario.rsu[0].appl meanRxThroughput_41_451 0
scalar SlicingScenario.rsu[0].appl meanTxThroughput_41_451 4061.0826210826
scalar SlicingScenario.rsu[0].appl rxTimeOfService_41_451 0
scalar SlicingScenario.rsu[0].appl txTimeOfService_41_451 351
scalar SlicingScenario.rsu[0].appl txPackets_41_457 117
scalar SlicingScenario.rsu[0].appl rxPackets_41_457 0
scalar SlicingScenario.rsu[0].appl rxNeighborPackets_41_457 0
scalar SlicingScenario.rsu[0].appl meanDelay_41_457 0
scalar SlicingScenario.rsu[0].appl meanJitter_41_457 0
scalar SlicingScenario.rsu[0].appl meanRxPacketSize_41_457 0
scalar SlicingScenario.rsu[0].appl meanTxPacketSize_41_457 1510
scalar SlicingScenario.rsu[0].appl meanRxThroughput_41_457 0
scalar SlicingScenario.rsu[0].appl meanTxThroughput_41_457 4061.3793103448
scalar SlicingScenario.rsu[0].appl rxTimeOfService_41_457 0
scalar SlicingScenario.rsu[0].appl txTimeOfService_41_457 348
scalar SlicingScenario.rsu[0].appl txPackets_41_463 116
scalar SlicingScenario.rsu[0].appl rxPackets_41_463 0
scalar SlicingScenario.rsu[0].appl rxNeighborPackets_41_463 0
scalar SlicingScenario.rsu[0].appl meanDelay_41_463 0
scalar SlicingScenario.rsu[0].appl meanJitter_41_463 0
scalar SlicingScenario.rsu[0].appl meanRxPacketSize_41_463 0
scalar SlicingScenario.rsu[0].appl meanTxPacketSize_41_463 1510
scalar SlicingScenario.rsu[0].appl meanRxThroughput_41_463 0
scalar SlicingScenario.rsu[0].appl meanTxThroughput_41_463 4061.6811594203
scalar SlicingScenario.rsu[0].appl rxTimeOfService_41_463 0
scalar SlicingScenario.rsu[0].appl txTimeOfService_41_463 345
scalar SlicingScenario.rsu[0].appl txPackets_41_469 116
scalar SlicingScenario.rsu[0].appl rxPackets_41_469 0
scalar SlicingScenario.rsu[0].appl rxNeighborPackets_41_469 0
scalar SlicingScenario.rsu[0].appl meanDelay_41_469 0
scalar SlicingScenario.rsu[0].appl meanJitter_41_469 0
scalar SlicingScenario.rsu[0].appl meanRxPacketSize_41_469 0
scalar SlicingScenario.rsu[0].appl meanTxPacketSize_41_469 1510
scalar SlicingScenario.rsu[0].appl meanRxThroughput_41_469 0
scalar SlicingScenario.rsu[0].appl meanTxThroughput_41_469 4061.6811594203
scalar SlicingScenario.rsu[0].appl rxTimeOfService_41_469 0
scalar SlicingScenario.rsu[0].appl txTimeOfService_41_469 345
scalar SlicingScenario.rsu[0].appl txPackets_41_475 115
scalar SlicingScenario.rsu[0].appl rxPackets_41_475 0
scalar SlicingScenario.rsu[0].appl rxNeighborPackets_41_475 0
scalar SlicingScenario.rsu[0].appl meanDelay_41_475 0
scalar SlicingScenario.rsu[0].appl meanJitter_41_475 0
scalar SlicingScenario.rsu[0].appl meanRxPacketSize_41_475 0
scalar SlicingScenario.rsu[0].appl meanTxPacketSize_41_475 1510
scalar SlicingScenario.rsu[0].appl meanRxThroughput_41_475 0
scalar SlicingScenario.rsu[0].appl meanTxThroughput_41_475 4061.9883040936
scalar SlicingScenario.rsu[0].appl rxTimeOfService_41_475 0
scalar SlicingScenario.rsu[0].appl txTimeOfService_41_475 342
scalar SlicingScenario.rsu[0].appl txPackets_41_487 114
scalar SlicingScenario.rsu[0].appl rxPackets_41_487 0
scalar SlicingScenario.rsu[0].appl rxNeighborPackets_41_487 0
scalar SlicingScenario.rsu[0].appl meanDelay_41_487 0
scalar SlicingScenario.rsu[0].appl meanJitter_41_487 0
scalar SlicingScenario.rsu[0].appl meanRxPacketSize_41_487 0
scalar SlicingScenario.rsu[0].appl meanTxPacketSize_41_487 1510
scalar SlicingScenario.rsu[0].appl meanRxThroughput_41_487 0
scalar SlicingScenario.rsu[0].appl meanTxThroughput_41_487 4062.3008849558
scalar SlicingScenario.rsu[0].appl rxTimeOfService_41_487 0
scalar SlicingScenario.rsu[0].appl txTimeOfService_41_487 339
scalar SlicingScenario.rsu[0].nic.phy80211p busyTime 0
scalar SlicingScenario.rsu[0].nic.phy80211p ncollisions 0
scalar SlicingScenario.rsu[0].nic.phy80211p UnderSensitivityPackets 0
scalar SlicingScenario.rsu[0].nic.mac1609_4 ReceivedUnicastPackets_CCH 0
scalar SlicingScenario.rsu[0].nic.mac1609_4 ReceivedBroadcasts_CCH 0
scalar SlicingScenario.rsu[0].nic.mac1609_4 SentPackets_CCH 0
scalar SlicingScenario.rsu[0].nic.mac1609_4 SentAcknowledgements_CCH 0
scalar SlicingScenario.rsu[0].nic.mac1609_4 SNIRLostPackets_CCH 0
scalar SlicingScenario.rsu[0].nic.mac1609_4 RXTXLostPackets_CCH 0
scalar SlicingScenario.rsu[0].nic.mac1609_4 TotalLostPackets_CCH 0
scalar SlicingScenario.rsu[0].nic.mac1609_4 DroppedPacketsInMac_CCH 0
scalar SlicingScenario.rsu[0].nic.mac1609_4 TooLittleTime_CCH 0
scalar SlicingScenario.rsu[0].nic.mac1609_4 TimesIntoBackoff_CCH 0
scalar SlicingScenario.rsu[0].nic.mac1609_4 SlotsBackoff_CCH 0
scalar SlicingScenario.rsu[0].nic.mac1609_4 NumInternalContention_CCH 0
scalar SlicingScenario.rsu[0].nic.mac1609_4 RemainingPacketsInEDCA_CCH 0
scalar SlicingScenario.rsu[0].nic.mac1609_4 totalBusyTime_CCH 0
scalar SlicingScenario.rsu[0].nic.mac1609_4 ReceivedUnicastPackets_SCH 0
scalar SlicingScenario.rsu[0].nic.mac1609_4 ReceivedBroadcasts_SCH 0
scalar SlicingScenario.rsu[0].nic.mac1609_4 SentPackets_SCH 11198
scalar SlicingScenario.rsu[0].nic.mac1609_4 SentAcknowledgements_SCH 0
scalar SlicingScenario.rsu[0].nic.mac1609_4 SNIRLostPackets_SCH 0
scalar SlicingScenario.rsu[0].nic.mac1609_4 RXTXLostPackets_SCH 0
scalar SlicingScenario.rsu[0].nic.mac1609_4 TotalLostPackets_SCH 0
scalar SlicingScenario.rsu[0].nic.mac1609_4 DroppedPacketsInMac_SCH 0
scalar SlicingScenario.rsu[0].nic.mac1609_4 TooLittleTime_SCH 9637
scalar SlicingScenario.rsu[0].nic.mac1609_4 TimesIntoBackoff_SCH 12326
scalar SlicingScenario.rsu[0].nic.mac1609_4 SlotsBackoff_SCH 39466
scalar SlicingScenario.rsu[0].nic.mac1609_4 NumInternalContention_SCH 0
scalar SlicingScenario.rsu[0].nic.mac1609_4 RemainingPacketsInEDCA_SCH 0
scalar SlicingScenario.rsu[0].nic.mac1609_4 totalBusyTime_SCH 23.12387

