version 2
run General-298-20190223-14:40:18-13022
attr configname General
attr datetime 20190223-14:40:18
attr experiment General
attr inifile omnetpp.ini
attr iterationvars "$vehicles=80, $msgSizeA=1500B, $serviceMsgInterval=0.4s"
attr iterationvarsf vehicles=80,msgSizeA=1500B,serviceMsgInterval=0.4s-
attr measurement "$vehicles=80, $msgSizeA=1500B, $serviceMsgInterval=0.4s"
attr network com.liborio.slicing.SlicingScenario
attr processid 13022
attr repetition 8
attr replication #8
attr resultdir results
attr runnumber 298
attr seedset 8
itervar msgSizeA 1500B
itervar serviceMsgInterval 0.4s
itervar vehicles 80
param **.debug false
param **.coreDebug false
param *.playgroundSizeX 1200m
param *.playgroundSizeY 1200m
param *.playgroundSizeZ 50m
param *.annotations.draw true
param *.manager.updateInterval 1s
param *.manager.host "\"localhost\""
param *.manager.port 9999
param *.manager.autoShutdown true
param *.manager.launchConfig "xmldoc(\"highway-\"+string(80)+\".launchd.xml\")"
param *.connectionManager.sendDirect true
param *.connectionManager.maxInterfDist 2600m
param *.connectionManager.drawMaxIntfDist false
param *.rsu[*].applType "\"RSUApp\""
param *.rsu[*].appl.headerLength "80 bit"
param *.rsu[*].appl.sendBeacons false
param *.rsu[*].appl.dataOnSch true
param *.rsu[*].appl.beaconInterval 1s
param *.rsu[*].appl.beaconUserPriority 7
param *.rsu[*].appl.dataUserPriority 5
param *.rsu[*].appl.entMsgADataLengthBytes 1500B
param *.rsu[*].appl.entMsgAUserPriority 4
param *.rsu[*].appl.entMsgAInterval 0.4s
param *.rsu[*].appl.entMsgBDataLengthBytes 1500B
param *.rsu[*].appl.entMsgBUserPriority 4
param *.rsu[*].appl.entMsgBInterval 0.4s
param *.rsu[*].nic.mac1609_4.useServiceChannel true
param *.rsu[*].nic.mac1609_4.txPower 20mW
param *.rsu[*].nic.mac1609_4.bitrate 6Mbps
param *.rsu[*].nic.phy80211p.sensitivity -90.00dBm
param *.rsu[0].mobility.x 515.0
param *.rsu[0].mobility.y 25.0
param *.rsu[0].mobility.z 3
param *.node[*].applType "\"VehApp\""
param *.node[*].appl.headerLength "80 bit"
param *.node[*].appl.sendBeacons false
param *.node[*].appl.dataOnSch true
param *.node[*].appl.beaconInterval 1s
param *.node[*].appl.wsaInterval 1s
param *.node[*].appl.entMsgADataLengthBits 1500B
param *.node[*].appl.entMsgAUserPriority 4
param *.node[*].appl.entMsgAInterval 0.4s
param *.node[*].appl.entMsgBDataLengthBits 1500B
param *.node[*].appl.entMsgBUserPriority 4
param *.node[*].appl.entMsgBInterval 0.4s
param *.node[*].nic.mac1609_4.useServiceChannel true
param *.node[*].nic.mac1609_4.txPower 20mW
param *.node[*].nic.mac1609_4.bitrate 6Mbps
param *.node[*].nic.phy80211p.sensitivity -90.00dBm
param *.node[*].veinsmobilityType.debug true
param *.node[*].veinsmobility.x 0
param *.node[*].veinsmobility.y 0
param *.node[*].veinsmobility.z 1.895
param *.**.nic.phy80211p.useThermalNoise true
param *.**.nic.phy80211p.thermalNoise -110dBm
param *.**.nic.phy80211p.decider "xmldoc(\"config.xml\")"
param *.**.nic.phy80211p.analogueModels "xmldoc(\"config.xml\")"
param *.**.nic.phy80211p.usePropagationDelay true
param *.**.nic.phy80211p.antenna "xmldoc(\"antenna.xml\", \"/root/Antenna[@id='monopole']\")"
param *.**.nic.phy80211p.collectCollisionStatistics true
param *.**.nic.phy80211p.allowTxDuringRx false

scalar SlicingScenario.node[0].appl txPackets_13 0
scalar SlicingScenario.node[0].appl rxPackets_13 0
scalar SlicingScenario.node[0].appl rxNeighborPackets_13 0
scalar SlicingScenario.node[0].appl meanDelay_13 0
scalar SlicingScenario.node[0].appl meanJitter_13 0
scalar SlicingScenario.node[0].appl meanRxPacketSize_13 0
scalar SlicingScenario.node[0].appl meanTxPacketSize_13 0
scalar SlicingScenario.node[0].appl meanRxThroughput_13 0
scalar SlicingScenario.node[0].appl meanTxThroughput_13 0
scalar SlicingScenario.node[0].appl rxTimeOfService_13 0
scalar SlicingScenario.node[0].appl txTimeOfService_13 0
scalar SlicingScenario.node[0].appl txPackets_41_13 0
scalar SlicingScenario.node[0].appl rxPackets_41_13 207
scalar SlicingScenario.node[0].appl rxNeighborPackets_41_13 2440
scalar SlicingScenario.node[0].appl meanDelay_41_13 0.004093822037
scalar SlicingScenario.node[0].appl meanJitter_41_13 5.3539685e-05
scalar SlicingScenario.node[0].appl meanRxPacketSize_41_13 1510
scalar SlicingScenario.node[0].appl meanTxPacketSize_41_13 0
scalar SlicingScenario.node[0].appl meanRxThroughput_41_13 30346.621101674
scalar SlicingScenario.node[0].appl meanTxThroughput_41_13 0
scalar SlicingScenario.node[0].appl rxTimeOfService_41_13 82.399947975166
scalar SlicingScenario.node[0].appl txTimeOfService_41_13 0
scalar SlicingScenario.node[0].nic.phy80211p busyTime 0.10512939130435
scalar SlicingScenario.node[0].nic.phy80211p ncollisions 0
scalar SlicingScenario.node[0].nic.phy80211p UnderSensitivityPackets 566
scalar SlicingScenario.node[0].nic.mac1609_4 ReceivedUnicastPackets_CCH 0
scalar SlicingScenario.node[0].nic.mac1609_4 ReceivedBroadcasts_CCH 0
scalar SlicingScenario.node[0].nic.mac1609_4 SentPackets_CCH 0
scalar SlicingScenario.node[0].nic.mac1609_4 SentAcknowledgements_CCH 0
scalar SlicingScenario.node[0].nic.mac1609_4 SNIRLostPackets_CCH 0
scalar SlicingScenario.node[0].nic.mac1609_4 RXTXLostPackets_CCH 0
scalar SlicingScenario.node[0].nic.mac1609_4 TotalLostPackets_CCH 0
scalar SlicingScenario.node[0].nic.mac1609_4 DroppedPacketsInMac_CCH 0
scalar SlicingScenario.node[0].nic.mac1609_4 TooLittleTime_CCH 0
scalar SlicingScenario.node[0].nic.mac1609_4 TimesIntoBackoff_CCH 0
scalar SlicingScenario.node[0].nic.mac1609_4 SlotsBackoff_CCH 0
scalar SlicingScenario.node[0].nic.mac1609_4 NumInternalContention_CCH 0
scalar SlicingScenario.node[0].nic.mac1609_4 RemainingPacketsInEDCA_CCH 0
scalar SlicingScenario.node[0].nic.mac1609_4 totalBusyTime_CCH 0
scalar SlicingScenario.node[0].nic.mac1609_4 ReceivedUnicastPackets_SCH 0
scalar SlicingScenario.node[0].nic.mac1609_4 ReceivedBroadcasts_SCH 4686
scalar SlicingScenario.node[0].nic.mac1609_4 SentPackets_SCH 0
scalar SlicingScenario.node[0].nic.mac1609_4 SentAcknowledgements_SCH 0
scalar SlicingScenario.node[0].nic.mac1609_4 SNIRLostPackets_SCH 0
scalar SlicingScenario.node[0].nic.mac1609_4 RXTXLostPackets_SCH 0
scalar SlicingScenario.node[0].nic.mac1609_4 TotalLostPackets_SCH 0
scalar SlicingScenario.node[0].nic.mac1609_4 DroppedPacketsInMac_SCH 0
scalar SlicingScenario.node[0].nic.mac1609_4 TooLittleTime_SCH 0
scalar SlicingScenario.node[0].nic.mac1609_4 TimesIntoBackoff_SCH 0
scalar SlicingScenario.node[0].nic.mac1609_4 SlotsBackoff_SCH 0
scalar SlicingScenario.node[0].nic.mac1609_4 NumInternalContention_SCH 0
scalar SlicingScenario.node[0].nic.mac1609_4 RemainingPacketsInEDCA_SCH 0
scalar SlicingScenario.node[0].nic.mac1609_4 totalBusyTime_SCH 9.671904
scalar SlicingScenario.node[0].veinsmobility startTime 1
scalar SlicingScenario.node[0].veinsmobility totalTime 91
scalar SlicingScenario.node[0].veinsmobility stopTime 93
scalar SlicingScenario.node[0].veinsmobility minSpeed 10.613837381024
scalar SlicingScenario.node[0].veinsmobility maxSpeed 11.107611039085
scalar SlicingScenario.node[0].veinsmobility totalDistance 976.86191247295
scalar SlicingScenario.node[0].veinsmobility totalCO2Emission 158.5456367229
scalar SlicingScenario.node[2].appl txPackets_25 0
scalar SlicingScenario.node[2].appl rxPackets_25 0
scalar SlicingScenario.node[2].appl rxNeighborPackets_25 0
scalar SlicingScenario.node[2].appl meanDelay_25 0
scalar SlicingScenario.node[2].appl meanJitter_25 0
scalar SlicingScenario.node[2].appl meanRxPacketSize_25 0
scalar SlicingScenario.node[2].appl meanTxPacketSize_25 0
scalar SlicingScenario.node[2].appl meanRxThroughput_25 0
scalar SlicingScenario.node[2].appl meanTxThroughput_25 0
scalar SlicingScenario.node[2].appl rxTimeOfService_25 0
scalar SlicingScenario.node[2].appl txTimeOfService_25 0
scalar SlicingScenario.node[2].appl txPackets_41_25 0
scalar SlicingScenario.node[2].appl rxPackets_41_25 208
scalar SlicingScenario.node[2].appl rxNeighborPackets_41_25 2550
scalar SlicingScenario.node[2].appl meanDelay_41_25 0.003974403833
scalar SlicingScenario.node[2].appl meanJitter_41_25 6.5751942e-05
scalar SlicingScenario.node[2].appl meanRxPacketSize_41_25 1510
scalar SlicingScenario.node[2].appl meanTxPacketSize_41_25 0
scalar SlicingScenario.node[2].appl meanRxThroughput_41_25 30344.951491697
scalar SlicingScenario.node[2].appl meanTxThroughput_41_25 0
scalar SlicingScenario.node[2].appl rxTimeOfService_41_25 82.802570987384
scalar SlicingScenario.node[2].appl txTimeOfService_41_25 0
scalar SlicingScenario.node[2].nic.phy80211p busyTime 0.10975095652174
scalar SlicingScenario.node[2].nic.phy80211p ncollisions 0
scalar SlicingScenario.node[2].nic.phy80211p UnderSensitivityPackets 590
scalar SlicingScenario.node[2].nic.mac1609_4 ReceivedUnicastPackets_CCH 0
scalar SlicingScenario.node[2].nic.mac1609_4 ReceivedBroadcasts_CCH 0
scalar SlicingScenario.node[2].nic.mac1609_4 SentPackets_CCH 0
scalar SlicingScenario.node[2].nic.mac1609_4 SentAcknowledgements_CCH 0
scalar SlicingScenario.node[2].nic.mac1609_4 SNIRLostPackets_CCH 0
scalar SlicingScenario.node[2].nic.mac1609_4 RXTXLostPackets_CCH 0
scalar SlicingScenario.node[2].nic.mac1609_4 TotalLostPackets_CCH 0
scalar SlicingScenario.node[2].nic.mac1609_4 DroppedPacketsInMac_CCH 0
scalar SlicingScenario.node[2].nic.mac1609_4 TooLittleTime_CCH 0
scalar SlicingScenario.node[2].nic.mac1609_4 TimesIntoBackoff_CCH 0
scalar SlicingScenario.node[2].nic.mac1609_4 SlotsBackoff_CCH 0
scalar SlicingScenario.node[2].nic.mac1609_4 NumInternalContention_CCH 0
scalar SlicingScenario.node[2].nic.mac1609_4 RemainingPacketsInEDCA_CCH 0
scalar SlicingScenario.node[2].nic.mac1609_4 totalBusyTime_CCH 0
scalar SlicingScenario.node[2].nic.mac1609_4 ReceivedUnicastPackets_SCH 0
scalar SlicingScenario.node[2].nic.mac1609_4 ReceivedBroadcasts_SCH 4892
scalar SlicingScenario.node[2].nic.mac1609_4 SentPackets_SCH 0
scalar SlicingScenario.node[2].nic.mac1609_4 SentAcknowledgements_SCH 0
scalar SlicingScenario.node[2].nic.mac1609_4 SNIRLostPackets_SCH 0
scalar SlicingScenario.node[2].nic.mac1609_4 RXTXLostPackets_SCH 0
scalar SlicingScenario.node[2].nic.mac1609_4 TotalLostPackets_SCH 0
scalar SlicingScenario.node[2].nic.mac1609_4 DroppedPacketsInMac_SCH 0
scalar SlicingScenario.node[2].nic.mac1609_4 TooLittleTime_SCH 0
scalar SlicingScenario.node[2].nic.mac1609_4 TimesIntoBackoff_SCH 0
scalar SlicingScenario.node[2].nic.mac1609_4 SlotsBackoff_SCH 0
scalar SlicingScenario.node[2].nic.mac1609_4 NumInternalContention_SCH 0
scalar SlicingScenario.node[2].nic.mac1609_4 RemainingPacketsInEDCA_SCH 0
scalar SlicingScenario.node[2].nic.mac1609_4 totalBusyTime_SCH 10.097088
scalar SlicingScenario.node[2].veinsmobility startTime 3
scalar SlicingScenario.node[2].veinsmobility totalTime 91
scalar SlicingScenario.node[2].veinsmobility stopTime 95
scalar SlicingScenario.node[2].veinsmobility minSpeed 10.617340281503
scalar SlicingScenario.node[2].veinsmobility maxSpeed 11.10979204603
scalar SlicingScenario.node[2].veinsmobility totalDistance 979.89559085293
scalar SlicingScenario.node[2].veinsmobility totalCO2Emission 157.4330826932
scalar SlicingScenario.node[1].appl txPackets_19 0
scalar SlicingScenario.node[1].appl rxPackets_19 0
scalar SlicingScenario.node[1].appl rxNeighborPackets_19 0
scalar SlicingScenario.node[1].appl meanDelay_19 0
scalar SlicingScenario.node[1].appl meanJitter_19 0
scalar SlicingScenario.node[1].appl meanRxPacketSize_19 0
scalar SlicingScenario.node[1].appl meanTxPacketSize_19 0
scalar SlicingScenario.node[1].appl meanRxThroughput_19 0
scalar SlicingScenario.node[1].appl meanTxThroughput_19 0
scalar SlicingScenario.node[1].appl rxTimeOfService_19 0
scalar SlicingScenario.node[1].appl txTimeOfService_19 0
scalar SlicingScenario.node[1].appl txPackets_41_19 0
scalar SlicingScenario.node[1].appl rxPackets_41_19 208
scalar SlicingScenario.node[1].appl rxNeighborPackets_41_19 2550
scalar SlicingScenario.node[1].appl meanDelay_41_19 0.005012471177
scalar SlicingScenario.node[1].appl meanJitter_41_19 7.2098428e-05
scalar SlicingScenario.node[1].appl meanRxPacketSize_41_19 1510
scalar SlicingScenario.node[1].appl meanTxPacketSize_41_19 0
scalar SlicingScenario.node[1].appl meanRxThroughput_41_19 30345.10613801
scalar SlicingScenario.node[1].appl meanTxThroughput_41_19 0
scalar SlicingScenario.node[1].appl rxTimeOfService_41_19 82.802149004604
scalar SlicingScenario.node[1].appl txTimeOfService_41_19 0
scalar SlicingScenario.node[1].nic.phy80211p busyTime 0.10857083870968
scalar SlicingScenario.node[1].nic.phy80211p ncollisions 0
scalar SlicingScenario.node[1].nic.phy80211p UnderSensitivityPackets 592
scalar SlicingScenario.node[1].nic.mac1609_4 ReceivedUnicastPackets_CCH 0
scalar SlicingScenario.node[1].nic.mac1609_4 ReceivedBroadcasts_CCH 0
scalar SlicingScenario.node[1].nic.mac1609_4 SentPackets_CCH 0
scalar SlicingScenario.node[1].nic.mac1609_4 SentAcknowledgements_CCH 0
scalar SlicingScenario.node[1].nic.mac1609_4 SNIRLostPackets_CCH 0
scalar SlicingScenario.node[1].nic.mac1609_4 RXTXLostPackets_CCH 0
scalar SlicingScenario.node[1].nic.mac1609_4 TotalLostPackets_CCH 0
scalar SlicingScenario.node[1].nic.mac1609_4 DroppedPacketsInMac_CCH 0
scalar SlicingScenario.node[1].nic.mac1609_4 TooLittleTime_CCH 0
scalar SlicingScenario.node[1].nic.mac1609_4 TimesIntoBackoff_CCH 0
scalar SlicingScenario.node[1].nic.mac1609_4 SlotsBackoff_CCH 0
scalar SlicingScenario.node[1].nic.mac1609_4 NumInternalContention_CCH 0
scalar SlicingScenario.node[1].nic.mac1609_4 RemainingPacketsInEDCA_CCH 0
scalar SlicingScenario.node[1].nic.mac1609_4 totalBusyTime_CCH 0
scalar SlicingScenario.node[1].nic.mac1609_4 ReceivedUnicastPackets_SCH 0
scalar SlicingScenario.node[1].nic.mac1609_4 ReceivedBroadcasts_SCH 4892
scalar SlicingScenario.node[1].nic.mac1609_4 SentPackets_SCH 0
scalar SlicingScenario.node[1].nic.mac1609_4 SentAcknowledgements_SCH 0
scalar SlicingScenario.node[1].nic.mac1609_4 SNIRLostPackets_SCH 0
scalar SlicingScenario.node[1].nic.mac1609_4 RXTXLostPackets_SCH 0
scalar SlicingScenario.node[1].nic.mac1609_4 TotalLostPackets_SCH 0
scalar SlicingScenario.node[1].nic.mac1609_4 DroppedPacketsInMac_SCH 0
scalar SlicingScenario.node[1].nic.mac1609_4 TooLittleTime_SCH 0
scalar SlicingScenario.node[1].nic.mac1609_4 TimesIntoBackoff_SCH 0
scalar SlicingScenario.node[1].nic.mac1609_4 SlotsBackoff_SCH 0
scalar SlicingScenario.node[1].nic.mac1609_4 NumInternalContention_SCH 0
scalar SlicingScenario.node[1].nic.mac1609_4 RemainingPacketsInEDCA_SCH 0
scalar SlicingScenario.node[1].nic.mac1609_4 totalBusyTime_SCH 10.097088
scalar SlicingScenario.node[1].veinsmobility startTime 2
scalar SlicingScenario.node[1].veinsmobility totalTime 92
scalar SlicingScenario.node[1].veinsmobility stopTime 95
scalar SlicingScenario.node[1].veinsmobility minSpeed 8.1080166913318
scalar SlicingScenario.node[1].veinsmobility maxSpeed 11.100616092575
scalar SlicingScenario.node[1].veinsmobility totalDistance 980.5224724552
scalar SlicingScenario.node[1].veinsmobility totalCO2Emission 167.2087600699
scalar SlicingScenario.node[3].appl txPackets_31 0
scalar SlicingScenario.node[3].appl rxPackets_31 0
scalar SlicingScenario.node[3].appl rxNeighborPackets_31 0
scalar SlicingScenario.node[3].appl meanDelay_31 0
scalar SlicingScenario.node[3].appl meanJitter_31 0
scalar SlicingScenario.node[3].appl meanRxPacketSize_31 0
scalar SlicingScenario.node[3].appl meanTxPacketSize_31 0
scalar SlicingScenario.node[3].appl meanRxThroughput_31 0
scalar SlicingScenario.node[3].appl meanTxThroughput_31 0
scalar SlicingScenario.node[3].appl rxTimeOfService_31 0
scalar SlicingScenario.node[3].appl txTimeOfService_31 0
scalar SlicingScenario.node[3].appl txPackets_40_31 0
scalar SlicingScenario.node[3].appl rxPackets_40_31 207
scalar SlicingScenario.node[3].appl rxNeighborPackets_40_31 2024
scalar SlicingScenario.node[3].appl meanDelay_40_31 0.00206950996
scalar SlicingScenario.node[3].appl meanJitter_40_31 1.0174265e-05
scalar SlicingScenario.node[3].appl meanRxPacketSize_40_31 1510
scalar SlicingScenario.node[3].appl meanTxPacketSize_40_31 0
scalar SlicingScenario.node[3].appl meanRxThroughput_40_31 30346.599362279
scalar SlicingScenario.node[3].appl meanTxThroughput_40_31 0
scalar SlicingScenario.node[3].appl rxTimeOfService_40_31 82.400007004021
scalar SlicingScenario.node[3].appl txTimeOfService_40_31 0
scalar SlicingScenario.node[3].nic.phy80211p busyTime 0.11316490322581
scalar SlicingScenario.node[3].nic.phy80211p ncollisions 0
scalar SlicingScenario.node[3].nic.phy80211p UnderSensitivityPackets 618
scalar SlicingScenario.node[3].nic.mac1609_4 ReceivedUnicastPackets_CCH 0
scalar SlicingScenario.node[3].nic.mac1609_4 ReceivedBroadcasts_CCH 0
scalar SlicingScenario.node[3].nic.mac1609_4 SentPackets_CCH 0
scalar SlicingScenario.node[3].nic.mac1609_4 SentAcknowledgements_CCH 0
scalar SlicingScenario.node[3].nic.mac1609_4 SNIRLostPackets_CCH 0
scalar SlicingScenario.node[3].nic.mac1609_4 RXTXLostPackets_CCH 0
scalar SlicingScenario.node[3].nic.mac1609_4 TotalLostPackets_CCH 0
scalar SlicingScenario.node[3].nic.mac1609_4 DroppedPacketsInMac_CCH 0
scalar SlicingScenario.node[3].nic.mac1609_4 TooLittleTime_CCH 0
scalar SlicingScenario.node[3].nic.mac1609_4 TimesIntoBackoff_CCH 0
scalar SlicingScenario.node[3].nic.mac1609_4 SlotsBackoff_CCH 0
scalar SlicingScenario.node[3].nic.mac1609_4 NumInternalContention_CCH 0
scalar SlicingScenario.node[3].nic.mac1609_4 RemainingPacketsInEDCA_CCH 0
scalar SlicingScenario.node[3].nic.mac1609_4 totalBusyTime_CCH 0
scalar SlicingScenario.node[3].nic.mac1609_4 ReceivedUnicastPackets_SCH 0
scalar SlicingScenario.node[3].nic.mac1609_4 ReceivedBroadcasts_SCH 5099
scalar SlicingScenario.node[3].nic.mac1609_4 SentPackets_SCH 0
scalar SlicingScenario.node[3].nic.mac1609_4 SentAcknowledgements_SCH 0
scalar SlicingScenario.node[3].nic.mac1609_4 SNIRLostPackets_SCH 0
scalar SlicingScenario.node[3].nic.mac1609_4 RXTXLostPackets_SCH 0
scalar SlicingScenario.node[3].nic.mac1609_4 TotalLostPackets_SCH 0
scalar SlicingScenario.node[3].nic.mac1609_4 DroppedPacketsInMac_SCH 0
scalar SlicingScenario.node[3].nic.mac1609_4 TooLittleTime_SCH 0
scalar SlicingScenario.node[3].nic.mac1609_4 TimesIntoBackoff_SCH 0
scalar SlicingScenario.node[3].nic.mac1609_4 SlotsBackoff_SCH 0
scalar SlicingScenario.node[3].nic.mac1609_4 NumInternalContention_SCH 0
scalar SlicingScenario.node[3].nic.mac1609_4 RemainingPacketsInEDCA_SCH 0
scalar SlicingScenario.node[3].nic.mac1609_4 totalBusyTime_SCH 10.524336
scalar SlicingScenario.node[3].veinsmobility startTime 4
scalar SlicingScenario.node[3].veinsmobility totalTime 92
scalar SlicingScenario.node[3].veinsmobility stopTime 97
scalar SlicingScenario.node[3].veinsmobility minSpeed 8.0773799466416
scalar SlicingScenario.node[3].veinsmobility maxSpeed 11.109825611245
scalar SlicingScenario.node[3].veinsmobility totalDistance 981.41505054994
scalar SlicingScenario.node[3].veinsmobility totalCO2Emission 166.47658545779
scalar SlicingScenario.node[4].appl txPackets_37 0
scalar SlicingScenario.node[4].appl rxPackets_37 0
scalar SlicingScenario.node[4].appl rxNeighborPackets_37 0
scalar SlicingScenario.node[4].appl meanDelay_37 0
scalar SlicingScenario.node[4].appl meanJitter_37 0
scalar SlicingScenario.node[4].appl meanRxPacketSize_37 0
scalar SlicingScenario.node[4].appl meanTxPacketSize_37 0
scalar SlicingScenario.node[4].appl meanRxThroughput_37 0
scalar SlicingScenario.node[4].appl meanTxThroughput_37 0
scalar SlicingScenario.node[4].appl rxTimeOfService_37 0
scalar SlicingScenario.node[4].appl txTimeOfService_37 0
scalar SlicingScenario.node[4].appl txPackets_41_37 0
scalar SlicingScenario.node[4].appl rxPackets_41_37 203
scalar SlicingScenario.node[4].appl rxNeighborPackets_41_37 2665
scalar SlicingScenario.node[4].appl meanDelay_41_37 0.003062737948
scalar SlicingScenario.node[4].appl meanJitter_41_37 3.936838e-05
scalar SlicingScenario.node[4].appl meanRxPacketSize_41_37 1510
scalar SlicingScenario.node[4].appl meanTxPacketSize_41_37 0
scalar SlicingScenario.node[4].appl meanRxThroughput_41_37 30348.878437969
scalar SlicingScenario.node[4].appl meanTxThroughput_41_37 0
scalar SlicingScenario.node[4].appl rxTimeOfService_41_37 80.80166800932
scalar SlicingScenario.node[4].appl txTimeOfService_41_37 0
scalar SlicingScenario.node[4].nic.phy80211p busyTime 0.11439495652174
scalar SlicingScenario.node[4].nic.phy80211p ncollisions 0
scalar SlicingScenario.node[4].nic.phy80211p UnderSensitivityPackets 614
scalar SlicingScenario.node[4].nic.mac1609_4 ReceivedUnicastPackets_CCH 0
scalar SlicingScenario.node[4].nic.mac1609_4 ReceivedBroadcasts_CCH 0
scalar SlicingScenario.node[4].nic.mac1609_4 SentPackets_CCH 0
scalar SlicingScenario.node[4].nic.mac1609_4 SentAcknowledgements_CCH 0
scalar SlicingScenario.node[4].nic.mac1609_4 SNIRLostPackets_CCH 0
scalar SlicingScenario.node[4].nic.mac1609_4 RXTXLostPackets_CCH 0
scalar SlicingScenario.node[4].nic.mac1609_4 TotalLostPackets_CCH 0
scalar SlicingScenario.node[4].nic.mac1609_4 DroppedPacketsInMac_CCH 0
scalar SlicingScenario.node[4].nic.mac1609_4 TooLittleTime_CCH 0
scalar SlicingScenario.node[4].nic.mac1609_4 TimesIntoBackoff_CCH 0
scalar SlicingScenario.node[4].nic.mac1609_4 SlotsBackoff_CCH 0
scalar SlicingScenario.node[4].nic.mac1609_4 NumInternalContention_CCH 0
scalar SlicingScenario.node[4].nic.mac1609_4 RemainingPacketsInEDCA_CCH 0
scalar SlicingScenario.node[4].nic.mac1609_4 totalBusyTime_CCH 0
scalar SlicingScenario.node[4].nic.mac1609_4 ReceivedUnicastPackets_SCH 0
scalar SlicingScenario.node[4].nic.mac1609_4 ReceivedBroadcasts_SCH 5099
scalar SlicingScenario.node[4].nic.mac1609_4 SentPackets_SCH 0
scalar SlicingScenario.node[4].nic.mac1609_4 SentAcknowledgements_SCH 0
scalar SlicingScenario.node[4].nic.mac1609_4 SNIRLostPackets_SCH 0
scalar SlicingScenario.node[4].nic.mac1609_4 RXTXLostPackets_SCH 0
scalar SlicingScenario.node[4].nic.mac1609_4 TotalLostPackets_SCH 0
scalar SlicingScenario.node[4].nic.mac1609_4 DroppedPacketsInMac_SCH 0
scalar SlicingScenario.node[4].nic.mac1609_4 TooLittleTime_SCH 0
scalar SlicingScenario.node[4].nic.mac1609_4 TimesIntoBackoff_SCH 0
scalar SlicingScenario.node[4].nic.mac1609_4 SlotsBackoff_SCH 0
scalar SlicingScenario.node[4].nic.mac1609_4 NumInternalContention_SCH 0
scalar SlicingScenario.node[4].nic.mac1609_4 RemainingPacketsInEDCA_SCH 0
scalar SlicingScenario.node[4].nic.mac1609_4 totalBusyTime_SCH 10.524336
scalar SlicingScenario.node[4].veinsmobility startTime 5
scalar SlicingScenario.node[4].veinsmobility totalTime 91
scalar SlicingScenario.node[4].veinsmobility stopTime 97
scalar SlicingScenario.node[4].veinsmobility minSpeed 10.610897774124
scalar SlicingScenario.node[4].veinsmobility maxSpeed 11.095074687167
scalar SlicingScenario.node[4].veinsmobility totalDistance 976.8201623998
scalar SlicingScenario.node[4].veinsmobility totalCO2Emission 157.70463800051
scalar SlicingScenario.node[5].appl txPackets_43 0
scalar SlicingScenario.node[5].appl rxPackets_43 0
scalar SlicingScenario.node[5].appl rxNeighborPackets_43 0
scalar SlicingScenario.node[5].appl meanDelay_43 0
scalar SlicingScenario.node[5].appl meanJitter_43 0
scalar SlicingScenario.node[5].appl meanRxPacketSize_43 0
scalar SlicingScenario.node[5].appl meanTxPacketSize_43 0
scalar SlicingScenario.node[5].appl meanRxThroughput_43 0
scalar SlicingScenario.node[5].appl meanTxThroughput_43 0
scalar SlicingScenario.node[5].appl rxTimeOfService_43 0
scalar SlicingScenario.node[5].appl txTimeOfService_43 0
scalar SlicingScenario.node[5].appl txPackets_41_43 0
scalar SlicingScenario.node[5].appl rxPackets_41_43 205
scalar SlicingScenario.node[5].appl rxNeighborPackets_41_43 2784
scalar SlicingScenario.node[5].appl meanDelay_41_43 0.002074004062
scalar SlicingScenario.node[5].appl meanJitter_41_43 1.0232241e-05
scalar SlicingScenario.node[5].appl meanRxPacketSize_41_43 1510
scalar SlicingScenario.node[5].appl meanTxPacketSize_41_43 0
scalar SlicingScenario.node[5].appl meanRxThroughput_41_43 30348.042536215
scalar SlicingScenario.node[5].appl meanTxThroughput_41_43 0
scalar SlicingScenario.node[5].appl rxTimeOfService_41_43 81.599991071741
scalar SlicingScenario.node[5].appl txTimeOfService_41_43 0
scalar SlicingScenario.node[5].nic.phy80211p busyTime 0.11930817391305
scalar SlicingScenario.node[5].nic.phy80211p ncollisions 0
scalar SlicingScenario.node[5].nic.phy80211p UnderSensitivityPackets 509
scalar SlicingScenario.node[5].nic.mac1609_4 ReceivedUnicastPackets_CCH 0
scalar SlicingScenario.node[5].nic.mac1609_4 ReceivedBroadcasts_CCH 0
scalar SlicingScenario.node[5].nic.mac1609_4 SentPackets_CCH 0
scalar SlicingScenario.node[5].nic.mac1609_4 SentAcknowledgements_CCH 0
scalar SlicingScenario.node[5].nic.mac1609_4 SNIRLostPackets_CCH 0
scalar SlicingScenario.node[5].nic.mac1609_4 RXTXLostPackets_CCH 0
scalar SlicingScenario.node[5].nic.mac1609_4 TotalLostPackets_CCH 0
scalar SlicingScenario.node[5].nic.mac1609_4 DroppedPacketsInMac_CCH 0
scalar SlicingScenario.node[5].nic.mac1609_4 TooLittleTime_CCH 0
scalar SlicingScenario.node[5].nic.mac1609_4 TimesIntoBackoff_CCH 0
scalar SlicingScenario.node[5].nic.mac1609_4 SlotsBackoff_CCH 0
scalar SlicingScenario.node[5].nic.mac1609_4 NumInternalContention_CCH 0
scalar SlicingScenario.node[5].nic.mac1609_4 RemainingPacketsInEDCA_CCH 0
scalar SlicingScenario.node[5].nic.mac1609_4 totalBusyTime_CCH 0
scalar SlicingScenario.node[5].nic.mac1609_4 ReceivedUnicastPackets_SCH 0
scalar SlicingScenario.node[5].nic.mac1609_4 ReceivedBroadcasts_SCH 5318
scalar SlicingScenario.node[5].nic.mac1609_4 SentPackets_SCH 0
scalar SlicingScenario.node[5].nic.mac1609_4 SentAcknowledgements_SCH 0
scalar SlicingScenario.node[5].nic.mac1609_4 SNIRLostPackets_SCH 0
scalar SlicingScenario.node[5].nic.mac1609_4 RXTXLostPackets_SCH 0
scalar SlicingScenario.node[5].nic.mac1609_4 TotalLostPackets_SCH 0
scalar SlicingScenario.node[5].nic.mac1609_4 DroppedPacketsInMac_SCH 0
scalar SlicingScenario.node[5].nic.mac1609_4 TooLittleTime_SCH 0
scalar SlicingScenario.node[5].nic.mac1609_4 TimesIntoBackoff_SCH 0
scalar SlicingScenario.node[5].nic.mac1609_4 SlotsBackoff_SCH 0
scalar SlicingScenario.node[5].nic.mac1609_4 NumInternalContention_SCH 0
scalar SlicingScenario.node[5].nic.mac1609_4 RemainingPacketsInEDCA_SCH 0
scalar SlicingScenario.node[5].nic.mac1609_4 totalBusyTime_SCH 10.976352
scalar SlicingScenario.node[5].veinsmobility startTime 6
scalar SlicingScenario.node[5].veinsmobility totalTime 91
scalar SlicingScenario.node[5].veinsmobility stopTime 98
scalar SlicingScenario.node[5].veinsmobility minSpeed 9.5364103999781
scalar SlicingScenario.node[5].veinsmobility maxSpeed 11.104593566982
scalar SlicingScenario.node[5].veinsmobility totalDistance 976.06815431482
scalar SlicingScenario.node[5].veinsmobility totalCO2Emission 162.65286383622
scalar SlicingScenario.node[6].appl txPackets_49 0
scalar SlicingScenario.node[6].appl rxPackets_49 0
scalar SlicingScenario.node[6].appl rxNeighborPackets_49 0
scalar SlicingScenario.node[6].appl meanDelay_49 0
scalar SlicingScenario.node[6].appl meanJitter_49 0
scalar SlicingScenario.node[6].appl meanRxPacketSize_49 0
scalar SlicingScenario.node[6].appl meanTxPacketSize_49 0
scalar SlicingScenario.node[6].appl meanRxThroughput_49 0
scalar SlicingScenario.node[6].appl meanTxThroughput_49 0
scalar SlicingScenario.node[6].appl rxTimeOfService_49 0
scalar SlicingScenario.node[6].appl txTimeOfService_49 0
scalar SlicingScenario.node[6].appl txPackets_40_49 0
scalar SlicingScenario.node[6].appl rxPackets_40_49 200
scalar SlicingScenario.node[6].appl rxNeighborPackets_40_49 2126
scalar SlicingScenario.node[6].appl meanDelay_40_49 0.003494029822
scalar SlicingScenario.node[6].appl meanJitter_40_49 7.2356686e-05
scalar SlicingScenario.node[6].appl meanRxPacketSize_40_49 1510
scalar SlicingScenario.node[6].appl meanTxPacketSize_40_49 0
scalar SlicingScenario.node[6].appl meanRxThroughput_40_49 30348.911452715
scalar SlicingScenario.node[6].appl meanTxThroughput_40_49 0
scalar SlicingScenario.node[6].appl rxTimeOfService_40_49 79.607468088741
scalar SlicingScenario.node[6].appl txTimeOfService_40_49 0
scalar SlicingScenario.node[6].nic.phy80211p busyTime 0.11906139130435
scalar SlicingScenario.node[6].nic.phy80211p ncollisions 0
scalar SlicingScenario.node[6].nic.phy80211p UnderSensitivityPackets 636
scalar SlicingScenario.node[6].nic.mac1609_4 ReceivedUnicastPackets_CCH 0
scalar SlicingScenario.node[6].nic.mac1609_4 ReceivedBroadcasts_CCH 0
scalar SlicingScenario.node[6].nic.mac1609_4 SentPackets_CCH 0
scalar SlicingScenario.node[6].nic.mac1609_4 SentAcknowledgements_CCH 0
scalar SlicingScenario.node[6].nic.mac1609_4 SNIRLostPackets_CCH 0
scalar SlicingScenario.node[6].nic.mac1609_4 RXTXLostPackets_CCH 0
scalar SlicingScenario.node[6].nic.mac1609_4 TotalLostPackets_CCH 0
scalar SlicingScenario.node[6].nic.mac1609_4 DroppedPacketsInMac_CCH 0
scalar SlicingScenario.node[6].nic.mac1609_4 TooLittleTime_CCH 0
scalar SlicingScenario.node[6].nic.mac1609_4 TimesIntoBackoff_CCH 0
scalar SlicingScenario.node[6].nic.mac1609_4 SlotsBackoff_CCH 0
scalar SlicingScenario.node[6].nic.mac1609_4 NumInternalContention_CCH 0
scalar SlicingScenario.node[6].nic.mac1609_4 RemainingPacketsInEDCA_CCH 0
scalar SlicingScenario.node[6].nic.mac1609_4 totalBusyTime_CCH 0
scalar SlicingScenario.node[6].nic.mac1609_4 ReceivedUnicastPackets_SCH 0
scalar SlicingScenario.node[6].nic.mac1609_4 ReceivedBroadcasts_SCH 5307
scalar SlicingScenario.node[6].nic.mac1609_4 SentPackets_SCH 0
scalar SlicingScenario.node[6].nic.mac1609_4 SentAcknowledgements_SCH 0
scalar SlicingScenario.node[6].nic.mac1609_4 SNIRLostPackets_SCH 0
scalar SlicingScenario.node[6].nic.mac1609_4 RXTXLostPackets_SCH 0
scalar SlicingScenario.node[6].nic.mac1609_4 TotalLostPackets_SCH 0
scalar SlicingScenario.node[6].nic.mac1609_4 DroppedPacketsInMac_SCH 0
scalar SlicingScenario.node[6].nic.mac1609_4 TooLittleTime_SCH 0
scalar SlicingScenario.node[6].nic.mac1609_4 TimesIntoBackoff_SCH 0
scalar SlicingScenario.node[6].nic.mac1609_4 SlotsBackoff_SCH 0
scalar SlicingScenario.node[6].nic.mac1609_4 NumInternalContention_SCH 0
scalar SlicingScenario.node[6].nic.mac1609_4 RemainingPacketsInEDCA_SCH 0
scalar SlicingScenario.node[6].nic.mac1609_4 totalBusyTime_SCH 10.953648
scalar SlicingScenario.node[6].veinsmobility startTime 7
scalar SlicingScenario.node[6].veinsmobility totalTime 91
scalar SlicingScenario.node[6].veinsmobility stopTime 99
scalar SlicingScenario.node[6].veinsmobility minSpeed 10.612145586652
scalar SlicingScenario.node[6].veinsmobility maxSpeed 11.108790719663
scalar SlicingScenario.node[6].veinsmobility totalDistance 978.37530850293
scalar SlicingScenario.node[6].veinsmobility totalCO2Emission 159.27772994095
scalar SlicingScenario.node[7].appl txPackets_55 0
scalar SlicingScenario.node[7].appl rxPackets_55 0
scalar SlicingScenario.node[7].appl rxNeighborPackets_55 0
scalar SlicingScenario.node[7].appl meanDelay_55 0
scalar SlicingScenario.node[7].appl meanJitter_55 0
scalar SlicingScenario.node[7].appl meanRxPacketSize_55 0
scalar SlicingScenario.node[7].appl meanTxPacketSize_55 0
scalar SlicingScenario.node[7].appl meanRxThroughput_55 0
scalar SlicingScenario.node[7].appl meanTxThroughput_55 0
scalar SlicingScenario.node[7].appl rxTimeOfService_55 0
scalar SlicingScenario.node[7].appl txTimeOfService_55 0
scalar SlicingScenario.node[7].appl txPackets_40_55 0
scalar SlicingScenario.node[7].appl rxPackets_40_55 197
scalar SlicingScenario.node[7].appl rxNeighborPackets_40_55 2182
scalar SlicingScenario.node[7].appl meanDelay_40_55 0.004368534851
scalar SlicingScenario.node[7].appl meanJitter_40_55 5.6076543e-05
scalar SlicingScenario.node[7].appl meanRxPacketSize_40_55 1510
scalar SlicingScenario.node[7].appl meanTxPacketSize_40_55 0
scalar SlicingScenario.node[7].appl meanRxThroughput_40_55 30354.091650159
scalar SlicingScenario.node[7].appl meanTxThroughput_40_55 0
scalar SlicingScenario.node[7].appl rxTimeOfService_40_55 78.399974126307
scalar SlicingScenario.node[7].appl txTimeOfService_40_55 0
scalar SlicingScenario.node[7].nic.phy80211p busyTime 0.12146191304349
scalar SlicingScenario.node[7].nic.phy80211p ncollisions 0
scalar SlicingScenario.node[7].nic.phy80211p UnderSensitivityPackets 643
scalar SlicingScenario.node[7].nic.mac1609_4 ReceivedUnicastPackets_CCH 0
scalar SlicingScenario.node[7].nic.mac1609_4 ReceivedBroadcasts_CCH 0
scalar SlicingScenario.node[7].nic.mac1609_4 SentPackets_CCH 0
scalar SlicingScenario.node[7].nic.mac1609_4 SentAcknowledgements_CCH 0
scalar SlicingScenario.node[7].nic.mac1609_4 SNIRLostPackets_CCH 0
scalar SlicingScenario.node[7].nic.mac1609_4 RXTXLostPackets_CCH 0
scalar SlicingScenario.node[7].nic.mac1609_4 TotalLostPackets_CCH 0
scalar SlicingScenario.node[7].nic.mac1609_4 DroppedPacketsInMac_CCH 0
scalar SlicingScenario.node[7].nic.mac1609_4 TooLittleTime_CCH 0
scalar SlicingScenario.node[7].nic.mac1609_4 TimesIntoBackoff_CCH 0
scalar SlicingScenario.node[7].nic.mac1609_4 SlotsBackoff_CCH 0
scalar SlicingScenario.node[7].nic.mac1609_4 NumInternalContention_CCH 0
scalar SlicingScenario.node[7].nic.mac1609_4 RemainingPacketsInEDCA_CCH 0
scalar SlicingScenario.node[7].nic.mac1609_4 totalBusyTime_CCH 0
scalar SlicingScenario.node[7].nic.mac1609_4 ReceivedUnicastPackets_SCH 0
scalar SlicingScenario.node[7].nic.mac1609_4 ReceivedBroadcasts_SCH 5414
scalar SlicingScenario.node[7].nic.mac1609_4 SentPackets_SCH 0
scalar SlicingScenario.node[7].nic.mac1609_4 SentAcknowledgements_SCH 0
scalar SlicingScenario.node[7].nic.mac1609_4 SNIRLostPackets_SCH 0
scalar SlicingScenario.node[7].nic.mac1609_4 RXTXLostPackets_SCH 0
scalar SlicingScenario.node[7].nic.mac1609_4 TotalLostPackets_SCH 0
scalar SlicingScenario.node[7].nic.mac1609_4 DroppedPacketsInMac_SCH 0
scalar SlicingScenario.node[7].nic.mac1609_4 TooLittleTime_SCH 0
scalar SlicingScenario.node[7].nic.mac1609_4 TimesIntoBackoff_SCH 0
scalar SlicingScenario.node[7].nic.mac1609_4 SlotsBackoff_SCH 0
scalar SlicingScenario.node[7].nic.mac1609_4 NumInternalContention_SCH 0
scalar SlicingScenario.node[7].nic.mac1609_4 RemainingPacketsInEDCA_SCH 0
scalar SlicingScenario.node[7].nic.mac1609_4 totalBusyTime_SCH 11.174496
scalar SlicingScenario.node[7].veinsmobility startTime 8
scalar SlicingScenario.node[7].veinsmobility totalTime 91
scalar SlicingScenario.node[7].veinsmobility stopTime 100
scalar SlicingScenario.node[7].veinsmobility minSpeed 10.614220859148
scalar SlicingScenario.node[7].veinsmobility maxSpeed 11.095941155232
scalar SlicingScenario.node[7].veinsmobility totalDistance 977.98149172297
scalar SlicingScenario.node[7].veinsmobility totalCO2Emission 157.17514854769
scalar SlicingScenario.node[8].appl txPackets_61 0
scalar SlicingScenario.node[8].appl rxPackets_61 0
scalar SlicingScenario.node[8].appl rxNeighborPackets_61 0
scalar SlicingScenario.node[8].appl meanDelay_61 0
scalar SlicingScenario.node[8].appl meanJitter_61 0
scalar SlicingScenario.node[8].appl meanRxPacketSize_61 0
scalar SlicingScenario.node[8].appl meanTxPacketSize_61 0
scalar SlicingScenario.node[8].appl meanRxThroughput_61 0
scalar SlicingScenario.node[8].appl meanTxThroughput_61 0
scalar SlicingScenario.node[8].appl rxTimeOfService_61 0
scalar SlicingScenario.node[8].appl txTimeOfService_61 0
scalar SlicingScenario.node[8].appl txPackets_41_61 0
scalar SlicingScenario.node[8].appl rxPackets_41_61 194
scalar SlicingScenario.node[8].appl rxNeighborPackets_41_61 2895
scalar SlicingScenario.node[8].appl meanDelay_41_61 0.002069732935
scalar SlicingScenario.node[8].appl meanJitter_41_61 1.0832241e-05
scalar SlicingScenario.node[8].appl meanRxPacketSize_41_61 1510
scalar SlicingScenario.node[8].appl meanTxPacketSize_41_61 0
scalar SlicingScenario.node[8].appl meanRxThroughput_41_61 30356.475441073
scalar SlicingScenario.node[8].appl meanTxThroughput_41_61 0
scalar SlicingScenario.node[8].appl rxTimeOfService_41_61 77.200003160748
scalar SlicingScenario.node[8].appl txTimeOfService_41_61 0
scalar SlicingScenario.node[8].nic.phy80211p busyTime 0.12372782608696
scalar SlicingScenario.node[8].nic.phy80211p ncollisions 0
scalar SlicingScenario.node[8].nic.phy80211p UnderSensitivityPackets 658
scalar SlicingScenario.node[8].nic.mac1609_4 ReceivedUnicastPackets_CCH 0
scalar SlicingScenario.node[8].nic.mac1609_4 ReceivedBroadcasts_CCH 0
scalar SlicingScenario.node[8].nic.mac1609_4 SentPackets_CCH 0
scalar SlicingScenario.node[8].nic.mac1609_4 SentAcknowledgements_CCH 0
scalar SlicingScenario.node[8].nic.mac1609_4 SNIRLostPackets_CCH 0
scalar SlicingScenario.node[8].nic.mac1609_4 RXTXLostPackets_CCH 0
scalar SlicingScenario.node[8].nic.mac1609_4 TotalLostPackets_CCH 0
scalar SlicingScenario.node[8].nic.mac1609_4 DroppedPacketsInMac_CCH 0
scalar SlicingScenario.node[8].nic.mac1609_4 TooLittleTime_CCH 0
scalar SlicingScenario.node[8].nic.mac1609_4 TimesIntoBackoff_CCH 0
scalar SlicingScenario.node[8].nic.mac1609_4 SlotsBackoff_CCH 0
scalar SlicingScenario.node[8].nic.mac1609_4 NumInternalContention_CCH 0
scalar SlicingScenario.node[8].nic.mac1609_4 RemainingPacketsInEDCA_CCH 0
scalar SlicingScenario.node[8].nic.mac1609_4 totalBusyTime_CCH 0
scalar SlicingScenario.node[8].nic.mac1609_4 ReceivedUnicastPackets_SCH 0
scalar SlicingScenario.node[8].nic.mac1609_4 ReceivedBroadcasts_SCH 5515
scalar SlicingScenario.node[8].nic.mac1609_4 SentPackets_SCH 0
scalar SlicingScenario.node[8].nic.mac1609_4 SentAcknowledgements_SCH 0
scalar SlicingScenario.node[8].nic.mac1609_4 SNIRLostPackets_SCH 0
scalar SlicingScenario.node[8].nic.mac1609_4 RXTXLostPackets_SCH 0
scalar SlicingScenario.node[8].nic.mac1609_4 TotalLostPackets_SCH 0
scalar SlicingScenario.node[8].nic.mac1609_4 DroppedPacketsInMac_SCH 0
scalar SlicingScenario.node[8].nic.mac1609_4 TooLittleTime_SCH 0
scalar SlicingScenario.node[8].nic.mac1609_4 TimesIntoBackoff_SCH 0
scalar SlicingScenario.node[8].nic.mac1609_4 SlotsBackoff_SCH 0
scalar SlicingScenario.node[8].nic.mac1609_4 NumInternalContention_SCH 0
scalar SlicingScenario.node[8].nic.mac1609_4 RemainingPacketsInEDCA_SCH 0
scalar SlicingScenario.node[8].nic.mac1609_4 totalBusyTime_SCH 11.38296
scalar SlicingScenario.node[8].veinsmobility startTime 9
scalar SlicingScenario.node[8].veinsmobility totalTime 91
scalar SlicingScenario.node[8].veinsmobility stopTime 101
scalar SlicingScenario.node[8].veinsmobility minSpeed 10.61759969675
scalar SlicingScenario.node[8].veinsmobility maxSpeed 11.099488665015
scalar SlicingScenario.node[8].veinsmobility totalDistance 979.49109128856
scalar SlicingScenario.node[8].veinsmobility totalCO2Emission 159.39528478894
scalar SlicingScenario.node[9].appl txPackets_67 0
scalar SlicingScenario.node[9].appl rxPackets_67 0
scalar SlicingScenario.node[9].appl rxNeighborPackets_67 0
scalar SlicingScenario.node[9].appl meanDelay_67 0
scalar SlicingScenario.node[9].appl meanJitter_67 0
scalar SlicingScenario.node[9].appl meanRxPacketSize_67 0
scalar SlicingScenario.node[9].appl meanTxPacketSize_67 0
scalar SlicingScenario.node[9].appl meanRxThroughput_67 0
scalar SlicingScenario.node[9].appl meanTxThroughput_67 0
scalar SlicingScenario.node[9].appl rxTimeOfService_67 0
scalar SlicingScenario.node[9].appl txTimeOfService_67 0
scalar SlicingScenario.node[9].appl txPackets_40_67 0
scalar SlicingScenario.node[9].appl rxPackets_40_67 191
scalar SlicingScenario.node[9].appl rxNeighborPackets_40_67 2287
scalar SlicingScenario.node[9].appl meanDelay_40_67 0.002072047015
scalar SlicingScenario.node[9].appl meanJitter_40_67 1.1195164e-05
scalar SlicingScenario.node[9].appl meanRxPacketSize_40_67 1510
scalar SlicingScenario.node[9].appl meanTxPacketSize_40_67 0
scalar SlicingScenario.node[9].appl meanRxThroughput_40_67 30358.946893554
scalar SlicingScenario.node[9].appl meanTxThroughput_40_67 0
scalar SlicingScenario.node[9].appl rxTimeOfService_40_67 76.000001188774
scalar SlicingScenario.node[9].appl txTimeOfService_40_67 0
scalar SlicingScenario.node[9].nic.phy80211p busyTime 0.12610591304349
scalar SlicingScenario.node[9].nic.phy80211p ncollisions 0
scalar SlicingScenario.node[9].nic.phy80211p UnderSensitivityPackets 666
scalar SlicingScenario.node[9].nic.mac1609_4 ReceivedUnicastPackets_CCH 0
scalar SlicingScenario.node[9].nic.mac1609_4 ReceivedBroadcasts_CCH 0
scalar SlicingScenario.node[9].nic.mac1609_4 SentPackets_CCH 0
scalar SlicingScenario.node[9].nic.mac1609_4 SentAcknowledgements_CCH 0
scalar SlicingScenario.node[9].nic.mac1609_4 SNIRLostPackets_CCH 0
scalar SlicingScenario.node[9].nic.mac1609_4 RXTXLostPackets_CCH 0
scalar SlicingScenario.node[9].nic.mac1609_4 TotalLostPackets_CCH 0
scalar SlicingScenario.node[9].nic.mac1609_4 DroppedPacketsInMac_CCH 0
scalar SlicingScenario.node[9].nic.mac1609_4 TooLittleTime_CCH 0
scalar SlicingScenario.node[9].nic.mac1609_4 TimesIntoBackoff_CCH 0
scalar SlicingScenario.node[9].nic.mac1609_4 SlotsBackoff_CCH 0
scalar SlicingScenario.node[9].nic.mac1609_4 NumInternalContention_CCH 0
scalar SlicingScenario.node[9].nic.mac1609_4 RemainingPacketsInEDCA_CCH 0
scalar SlicingScenario.node[9].nic.mac1609_4 totalBusyTime_CCH 0
scalar SlicingScenario.node[9].nic.mac1609_4 ReceivedUnicastPackets_SCH 0
scalar SlicingScenario.node[9].nic.mac1609_4 ReceivedBroadcasts_SCH 5621
scalar SlicingScenario.node[9].nic.mac1609_4 SentPackets_SCH 0
scalar SlicingScenario.node[9].nic.mac1609_4 SentAcknowledgements_SCH 0
scalar SlicingScenario.node[9].nic.mac1609_4 SNIRLostPackets_SCH 0
scalar SlicingScenario.node[9].nic.mac1609_4 RXTXLostPackets_SCH 0
scalar SlicingScenario.node[9].nic.mac1609_4 TotalLostPackets_SCH 0
scalar SlicingScenario.node[9].nic.mac1609_4 DroppedPacketsInMac_SCH 0
scalar SlicingScenario.node[9].nic.mac1609_4 TooLittleTime_SCH 0
scalar SlicingScenario.node[9].nic.mac1609_4 TimesIntoBackoff_SCH 0
scalar SlicingScenario.node[9].nic.mac1609_4 SlotsBackoff_SCH 0
scalar SlicingScenario.node[9].nic.mac1609_4 NumInternalContention_SCH 0
scalar SlicingScenario.node[9].nic.mac1609_4 RemainingPacketsInEDCA_SCH 0
scalar SlicingScenario.node[9].nic.mac1609_4 totalBusyTime_SCH 11.601744
scalar SlicingScenario.node[9].veinsmobility startTime 10
scalar SlicingScenario.node[9].veinsmobility totalTime 91
scalar SlicingScenario.node[9].veinsmobility stopTime 102
scalar SlicingScenario.node[9].veinsmobility minSpeed 10.610231267768
scalar SlicingScenario.node[9].veinsmobility maxSpeed 11.106181174298
scalar SlicingScenario.node[9].veinsmobility totalDistance 976.79643637893
scalar SlicingScenario.node[9].veinsmobility totalCO2Emission 159.9282249358
scalar SlicingScenario.node[10].appl txPackets_73 0
scalar SlicingScenario.node[10].appl rxPackets_73 0
scalar SlicingScenario.node[10].appl rxNeighborPackets_73 0
scalar SlicingScenario.node[10].appl meanDelay_73 0
scalar SlicingScenario.node[10].appl meanJitter_73 0
scalar SlicingScenario.node[10].appl meanRxPacketSize_73 0
scalar SlicingScenario.node[10].appl meanTxPacketSize_73 0
scalar SlicingScenario.node[10].appl meanRxThroughput_73 0
scalar SlicingScenario.node[10].appl meanTxThroughput_73 0
scalar SlicingScenario.node[10].appl rxTimeOfService_73 0
scalar SlicingScenario.node[10].appl txTimeOfService_73 0
scalar SlicingScenario.node[10].appl txPackets_41_73 0
scalar SlicingScenario.node[10].appl rxPackets_41_73 190
scalar SlicingScenario.node[10].appl rxNeighborPackets_41_73 3009
scalar SlicingScenario.node[10].appl meanDelay_41_73 0.002069814366
scalar SlicingScenario.node[10].appl meanJitter_41_73 1.0976682e-05
scalar SlicingScenario.node[10].appl meanRxPacketSize_41_73 1510
scalar SlicingScenario.node[10].appl meanTxPacketSize_41_73 0
scalar SlicingScenario.node[10].appl meanRxThroughput_41_73 30359.786659852
scalar SlicingScenario.node[10].appl meanTxThroughput_41_73 0
scalar SlicingScenario.node[10].appl rxTimeOfService_41_73 75.600004233072
scalar SlicingScenario.node[10].appl txTimeOfService_41_73 0
scalar SlicingScenario.node[10].nic.phy80211p busyTime 0.12837182608697
scalar SlicingScenario.node[10].nic.phy80211p ncollisions 0
scalar SlicingScenario.node[10].nic.phy80211p UnderSensitivityPackets 682
scalar SlicingScenario.node[10].nic.mac1609_4 ReceivedUnicastPackets_CCH 0
scalar SlicingScenario.node[10].nic.mac1609_4 ReceivedBroadcasts_CCH 0
scalar SlicingScenario.node[10].nic.mac1609_4 SentPackets_CCH 0
scalar SlicingScenario.node[10].nic.mac1609_4 SentAcknowledgements_CCH 0
scalar SlicingScenario.node[10].nic.mac1609_4 SNIRLostPackets_CCH 0
scalar SlicingScenario.node[10].nic.mac1609_4 RXTXLostPackets_CCH 0
scalar SlicingScenario.node[10].nic.mac1609_4 TotalLostPackets_CCH 0
scalar SlicingScenario.node[10].nic.mac1609_4 DroppedPacketsInMac_CCH 0
scalar SlicingScenario.node[10].nic.mac1609_4 TooLittleTime_CCH 0
scalar SlicingScenario.node[10].nic.mac1609_4 TimesIntoBackoff_CCH 0
scalar SlicingScenario.node[10].nic.mac1609_4 SlotsBackoff_CCH 0
scalar SlicingScenario.node[10].nic.mac1609_4 NumInternalContention_CCH 0
scalar SlicingScenario.node[10].nic.mac1609_4 RemainingPacketsInEDCA_CCH 0
scalar SlicingScenario.node[10].nic.mac1609_4 totalBusyTime_CCH 0
scalar SlicingScenario.node[10].nic.mac1609_4 ReceivedUnicastPackets_SCH 0
scalar SlicingScenario.node[10].nic.mac1609_4 ReceivedBroadcasts_SCH 5722
scalar SlicingScenario.node[10].nic.mac1609_4 SentPackets_SCH 0
scalar SlicingScenario.node[10].nic.mac1609_4 SentAcknowledgements_SCH 0
scalar SlicingScenario.node[10].nic.mac1609_4 SNIRLostPackets_SCH 0
scalar SlicingScenario.node[10].nic.mac1609_4 RXTXLostPackets_SCH 0
scalar SlicingScenario.node[10].nic.mac1609_4 TotalLostPackets_SCH 0
scalar SlicingScenario.node[10].nic.mac1609_4 DroppedPacketsInMac_SCH 0
scalar SlicingScenario.node[10].nic.mac1609_4 TooLittleTime_SCH 0
scalar SlicingScenario.node[10].nic.mac1609_4 TimesIntoBackoff_SCH 0
scalar SlicingScenario.node[10].nic.mac1609_4 SlotsBackoff_SCH 0
scalar SlicingScenario.node[10].nic.mac1609_4 NumInternalContention_SCH 0
scalar SlicingScenario.node[10].nic.mac1609_4 RemainingPacketsInEDCA_SCH 0
scalar SlicingScenario.node[10].nic.mac1609_4 totalBusyTime_SCH 11.810208
scalar SlicingScenario.node[10].veinsmobility startTime 11
scalar SlicingScenario.node[10].veinsmobility totalTime 91
scalar SlicingScenario.node[10].veinsmobility stopTime 103
scalar SlicingScenario.node[10].veinsmobility minSpeed 10.617962227915
scalar SlicingScenario.node[10].veinsmobility maxSpeed 11.105422864798
scalar SlicingScenario.node[10].veinsmobility totalDistance 979.95711319
scalar SlicingScenario.node[10].veinsmobility totalCO2Emission 157.94455726941
scalar SlicingScenario.node[11].appl txPackets_79 0
scalar SlicingScenario.node[11].appl rxPackets_79 0
scalar SlicingScenario.node[11].appl rxNeighborPackets_79 0
scalar SlicingScenario.node[11].appl meanDelay_79 0
scalar SlicingScenario.node[11].appl meanJitter_79 0
scalar SlicingScenario.node[11].appl meanRxPacketSize_79 0
scalar SlicingScenario.node[11].appl meanTxPacketSize_79 0
scalar SlicingScenario.node[11].appl meanRxThroughput_79 0
scalar SlicingScenario.node[11].appl meanTxThroughput_79 0
scalar SlicingScenario.node[11].appl rxTimeOfService_79 0
scalar SlicingScenario.node[11].appl txTimeOfService_79 0
scalar SlicingScenario.node[11].appl txPackets_40_79 0
scalar SlicingScenario.node[11].appl rxPackets_40_79 186
scalar SlicingScenario.node[11].appl rxNeighborPackets_40_79 2387
scalar SlicingScenario.node[11].appl meanDelay_40_79 0.0038109119
scalar SlicingScenario.node[11].appl meanJitter_40_79 7.1196931e-05
scalar SlicingScenario.node[11].appl meanRxPacketSize_40_79 1510
scalar SlicingScenario.node[11].appl meanTxPacketSize_40_79 0
scalar SlicingScenario.node[11].appl meanRxThroughput_40_79 30362.330622648
scalar SlicingScenario.node[11].appl meanTxThroughput_40_79 0
scalar SlicingScenario.node[11].appl rxTimeOfService_40_79 74.002224266803
scalar SlicingScenario.node[11].appl txTimeOfService_40_79 0
scalar SlicingScenario.node[11].nic.phy80211p busyTime 0.13074991304349
scalar SlicingScenario.node[11].nic.phy80211p ncollisions 0
scalar SlicingScenario.node[11].nic.phy80211p UnderSensitivityPackets 690
scalar SlicingScenario.node[11].nic.mac1609_4 ReceivedUnicastPackets_CCH 0
scalar SlicingScenario.node[11].nic.mac1609_4 ReceivedBroadcasts_CCH 0
scalar SlicingScenario.node[11].nic.mac1609_4 SentPackets_CCH 0
scalar SlicingScenario.node[11].nic.mac1609_4 SentAcknowledgements_CCH 0
scalar SlicingScenario.node[11].nic.mac1609_4 SNIRLostPackets_CCH 0
scalar SlicingScenario.node[11].nic.mac1609_4 RXTXLostPackets_CCH 0
scalar SlicingScenario.node[11].nic.mac1609_4 TotalLostPackets_CCH 0
scalar SlicingScenario.node[11].nic.mac1609_4 DroppedPacketsInMac_CCH 0
scalar SlicingScenario.node[11].nic.mac1609_4 TooLittleTime_CCH 0
scalar SlicingScenario.node[11].nic.mac1609_4 TimesIntoBackoff_CCH 0
scalar SlicingScenario.node[11].nic.mac1609_4 SlotsBackoff_CCH 0
scalar SlicingScenario.node[11].nic.mac1609_4 NumInternalContention_CCH 0
scalar SlicingScenario.node[11].nic.mac1609_4 RemainingPacketsInEDCA_CCH 0
scalar SlicingScenario.node[11].nic.mac1609_4 totalBusyTime_CCH 0
scalar SlicingScenario.node[11].nic.mac1609_4 ReceivedUnicastPackets_SCH 0
scalar SlicingScenario.node[11].nic.mac1609_4 ReceivedBroadcasts_SCH 5828
scalar SlicingScenario.node[11].nic.mac1609_4 SentPackets_SCH 0
scalar SlicingScenario.node[11].nic.mac1609_4 SentAcknowledgements_SCH 0
scalar SlicingScenario.node[11].nic.mac1609_4 SNIRLostPackets_SCH 0
scalar SlicingScenario.node[11].nic.mac1609_4 RXTXLostPackets_SCH 0
scalar SlicingScenario.node[11].nic.mac1609_4 TotalLostPackets_SCH 0
scalar SlicingScenario.node[11].nic.mac1609_4 DroppedPacketsInMac_SCH 0
scalar SlicingScenario.node[11].nic.mac1609_4 TooLittleTime_SCH 0
scalar SlicingScenario.node[11].nic.mac1609_4 TimesIntoBackoff_SCH 0
scalar SlicingScenario.node[11].nic.mac1609_4 SlotsBackoff_SCH 0
scalar SlicingScenario.node[11].nic.mac1609_4 NumInternalContention_SCH 0
scalar SlicingScenario.node[11].nic.mac1609_4 RemainingPacketsInEDCA_SCH 0
scalar SlicingScenario.node[11].nic.mac1609_4 totalBusyTime_SCH 12.028992
scalar SlicingScenario.node[11].veinsmobility startTime 12
scalar SlicingScenario.node[11].veinsmobility totalTime 91
scalar SlicingScenario.node[11].veinsmobility stopTime 104
scalar SlicingScenario.node[11].veinsmobility minSpeed 10.610778286718
scalar SlicingScenario.node[11].veinsmobility maxSpeed 11.103659269297
scalar SlicingScenario.node[11].veinsmobility totalDistance 978.86188287304
scalar SlicingScenario.node[11].veinsmobility totalCO2Emission 160.54425195465
scalar SlicingScenario.node[12].appl txPackets_85 0
scalar SlicingScenario.node[12].appl rxPackets_85 0
scalar SlicingScenario.node[12].appl rxNeighborPackets_85 0
scalar SlicingScenario.node[12].appl meanDelay_85 0
scalar SlicingScenario.node[12].appl meanJitter_85 0
scalar SlicingScenario.node[12].appl meanRxPacketSize_85 0
scalar SlicingScenario.node[12].appl meanTxPacketSize_85 0
scalar SlicingScenario.node[12].appl meanRxThroughput_85 0
scalar SlicingScenario.node[12].appl meanTxThroughput_85 0
scalar SlicingScenario.node[12].appl rxTimeOfService_85 0
scalar SlicingScenario.node[12].appl txTimeOfService_85 0
scalar SlicingScenario.node[12].appl txPackets_41_85 0
scalar SlicingScenario.node[12].appl rxPackets_41_85 184
scalar SlicingScenario.node[12].appl rxNeighborPackets_41_85 3130
scalar SlicingScenario.node[12].appl meanDelay_41_85 0.002973757272
scalar SlicingScenario.node[12].appl meanJitter_41_85 5.6364919e-05
scalar SlicingScenario.node[12].appl meanRxPacketSize_41_85 1510
scalar SlicingScenario.node[12].appl meanTxPacketSize_41_85 0
scalar SlicingScenario.node[12].appl meanRxThroughput_41_85 30364.594954619
scalar SlicingScenario.node[12].appl meanTxThroughput_41_85 0
scalar SlicingScenario.node[12].appl rxTimeOfService_41_85 73.201042310031
scalar SlicingScenario.node[12].appl txTimeOfService_41_85 0
scalar SlicingScenario.node[12].nic.phy80211p busyTime 0.13303826086958
scalar SlicingScenario.node[12].nic.phy80211p ncollisions 0
scalar SlicingScenario.node[12].nic.phy80211p UnderSensitivityPackets 703
scalar SlicingScenario.node[12].nic.mac1609_4 ReceivedUnicastPackets_CCH 0
scalar SlicingScenario.node[12].nic.mac1609_4 ReceivedBroadcasts_CCH 0
scalar SlicingScenario.node[12].nic.mac1609_4 SentPackets_CCH 0
scalar SlicingScenario.node[12].nic.mac1609_4 SentAcknowledgements_CCH 0
scalar SlicingScenario.node[12].nic.mac1609_4 SNIRLostPackets_CCH 0
scalar SlicingScenario.node[12].nic.mac1609_4 RXTXLostPackets_CCH 0
scalar SlicingScenario.node[12].nic.mac1609_4 TotalLostPackets_CCH 0
scalar SlicingScenario.node[12].nic.mac1609_4 DroppedPacketsInMac_CCH 0
scalar SlicingScenario.node[12].nic.mac1609_4 TooLittleTime_CCH 0
scalar SlicingScenario.node[12].nic.mac1609_4 TimesIntoBackoff_CCH 0
scalar SlicingScenario.node[12].nic.mac1609_4 SlotsBackoff_CCH 0
scalar SlicingScenario.node[12].nic.mac1609_4 NumInternalContention_CCH 0
scalar SlicingScenario.node[12].nic.mac1609_4 RemainingPacketsInEDCA_CCH 0
scalar SlicingScenario.node[12].nic.mac1609_4 totalBusyTime_CCH 0
scalar SlicingScenario.node[12].nic.mac1609_4 ReceivedUnicastPackets_SCH 0
scalar SlicingScenario.node[12].nic.mac1609_4 ReceivedBroadcasts_SCH 5930
scalar SlicingScenario.node[12].nic.mac1609_4 SentPackets_SCH 0
scalar SlicingScenario.node[12].nic.mac1609_4 SentAcknowledgements_SCH 0
scalar SlicingScenario.node[12].nic.mac1609_4 SNIRLostPackets_SCH 0
scalar SlicingScenario.node[12].nic.mac1609_4 RXTXLostPackets_SCH 0
scalar SlicingScenario.node[12].nic.mac1609_4 TotalLostPackets_SCH 0
scalar SlicingScenario.node[12].nic.mac1609_4 DroppedPacketsInMac_SCH 0
scalar SlicingScenario.node[12].nic.mac1609_4 TooLittleTime_SCH 0
scalar SlicingScenario.node[12].nic.mac1609_4 TimesIntoBackoff_SCH 0
scalar SlicingScenario.node[12].nic.mac1609_4 SlotsBackoff_SCH 0
scalar SlicingScenario.node[12].nic.mac1609_4 NumInternalContention_SCH 0
scalar SlicingScenario.node[12].nic.mac1609_4 RemainingPacketsInEDCA_SCH 0
scalar SlicingScenario.node[12].nic.mac1609_4 totalBusyTime_SCH 12.23952
scalar SlicingScenario.node[12].veinsmobility startTime 13
scalar SlicingScenario.node[12].veinsmobility totalTime 91
scalar SlicingScenario.node[12].veinsmobility stopTime 105
scalar SlicingScenario.node[12].veinsmobility minSpeed 10.610840174966
scalar SlicingScenario.node[12].veinsmobility maxSpeed 11.108610154958
scalar SlicingScenario.node[12].veinsmobility totalDistance 980.31244982881
scalar SlicingScenario.node[12].veinsmobility totalCO2Emission 158.85804681407
scalar SlicingScenario.node[13].appl txPackets_91 0
scalar SlicingScenario.node[13].appl rxPackets_91 0
scalar SlicingScenario.node[13].appl rxNeighborPackets_91 0
scalar SlicingScenario.node[13].appl meanDelay_91 0
scalar SlicingScenario.node[13].appl meanJitter_91 0
scalar SlicingScenario.node[13].appl meanRxPacketSize_91 0
scalar SlicingScenario.node[13].appl meanTxPacketSize_91 0
scalar SlicingScenario.node[13].appl meanRxThroughput_91 0
scalar SlicingScenario.node[13].appl meanTxThroughput_91 0
scalar SlicingScenario.node[13].appl rxTimeOfService_91 0
scalar SlicingScenario.node[13].appl txTimeOfService_91 0
scalar SlicingScenario.node[13].appl txPackets_41_91 0
scalar SlicingScenario.node[13].appl rxPackets_41_91 181
scalar SlicingScenario.node[13].appl rxNeighborPackets_41_91 3189
scalar SlicingScenario.node[13].appl meanDelay_41_91 0.002072232886
scalar SlicingScenario.node[13].appl meanJitter_41_91 1.1629425e-05
scalar SlicingScenario.node[13].appl meanRxPacketSize_41_91 1510
scalar SlicingScenario.node[13].appl meanTxPacketSize_41_91 0
scalar SlicingScenario.node[13].appl meanRxThroughput_41_91 30367.778053853
scalar SlicingScenario.node[13].appl meanTxThroughput_41_91 0
scalar SlicingScenario.node[13].appl rxTimeOfService_41_91 71.999999345445
scalar SlicingScenario.node[13].appl txTimeOfService_41_91 0
scalar SlicingScenario.node[13].nic.phy80211p busyTime 0.1354163478261
scalar SlicingScenario.node[13].nic.phy80211p ncollisions 0
scalar SlicingScenario.node[13].nic.phy80211p UnderSensitivityPackets 711
scalar SlicingScenario.node[13].nic.mac1609_4 ReceivedUnicastPackets_CCH 0
scalar SlicingScenario.node[13].nic.mac1609_4 ReceivedBroadcasts_CCH 0
scalar SlicingScenario.node[13].nic.mac1609_4 SentPackets_CCH 0
scalar SlicingScenario.node[13].nic.mac1609_4 SentAcknowledgements_CCH 0
scalar SlicingScenario.node[13].nic.mac1609_4 SNIRLostPackets_CCH 0
scalar SlicingScenario.node[13].nic.mac1609_4 RXTXLostPackets_CCH 0
scalar SlicingScenario.node[13].nic.mac1609_4 TotalLostPackets_CCH 0
scalar SlicingScenario.node[13].nic.mac1609_4 DroppedPacketsInMac_CCH 0
scalar SlicingScenario.node[13].nic.mac1609_4 TooLittleTime_CCH 0
scalar SlicingScenario.node[13].nic.mac1609_4 TimesIntoBackoff_CCH 0
scalar SlicingScenario.node[13].nic.mac1609_4 SlotsBackoff_CCH 0
scalar SlicingScenario.node[13].nic.mac1609_4 NumInternalContention_CCH 0
scalar SlicingScenario.node[13].nic.mac1609_4 RemainingPacketsInEDCA_CCH 0
scalar SlicingScenario.node[13].nic.mac1609_4 totalBusyTime_CCH 0
scalar SlicingScenario.node[13].nic.mac1609_4 ReceivedUnicastPackets_SCH 0
scalar SlicingScenario.node[13].nic.mac1609_4 ReceivedBroadcasts_SCH 6036
scalar SlicingScenario.node[13].nic.mac1609_4 SentPackets_SCH 0
scalar SlicingScenario.node[13].nic.mac1609_4 SentAcknowledgements_SCH 0
scalar SlicingScenario.node[13].nic.mac1609_4 SNIRLostPackets_SCH 0
scalar SlicingScenario.node[13].nic.mac1609_4 RXTXLostPackets_SCH 0
scalar SlicingScenario.node[13].nic.mac1609_4 TotalLostPackets_SCH 0
scalar SlicingScenario.node[13].nic.mac1609_4 DroppedPacketsInMac_SCH 0
scalar SlicingScenario.node[13].nic.mac1609_4 TooLittleTime_SCH 0
scalar SlicingScenario.node[13].nic.mac1609_4 TimesIntoBackoff_SCH 0
scalar SlicingScenario.node[13].nic.mac1609_4 SlotsBackoff_SCH 0
scalar SlicingScenario.node[13].nic.mac1609_4 NumInternalContention_SCH 0
scalar SlicingScenario.node[13].nic.mac1609_4 RemainingPacketsInEDCA_SCH 0
scalar SlicingScenario.node[13].nic.mac1609_4 totalBusyTime_SCH 12.458304
scalar SlicingScenario.node[13].veinsmobility startTime 14
scalar SlicingScenario.node[13].veinsmobility totalTime 91
scalar SlicingScenario.node[13].veinsmobility stopTime 106
scalar SlicingScenario.node[13].veinsmobility minSpeed 10.615996710854
scalar SlicingScenario.node[13].veinsmobility maxSpeed 11.105474299882
scalar SlicingScenario.node[13].veinsmobility totalDistance 980.45071804603
scalar SlicingScenario.node[13].veinsmobility totalCO2Emission 158.39308376985
scalar SlicingScenario.node[14].appl txPackets_97 0
scalar SlicingScenario.node[14].appl rxPackets_97 0
scalar SlicingScenario.node[14].appl rxNeighborPackets_97 0
scalar SlicingScenario.node[14].appl meanDelay_97 0
scalar SlicingScenario.node[14].appl meanJitter_97 0
scalar SlicingScenario.node[14].appl meanRxPacketSize_97 0
scalar SlicingScenario.node[14].appl meanTxPacketSize_97 0
scalar SlicingScenario.node[14].appl meanRxThroughput_97 0
scalar SlicingScenario.node[14].appl meanTxThroughput_97 0
scalar SlicingScenario.node[14].appl rxTimeOfService_97 0
scalar SlicingScenario.node[14].appl txTimeOfService_97 0
scalar SlicingScenario.node[14].appl txPackets_40_97 0
scalar SlicingScenario.node[14].appl rxPackets_40_97 180
scalar SlicingScenario.node[14].appl rxNeighborPackets_40_97 2530
scalar SlicingScenario.node[14].appl meanDelay_40_97 0.002070336063
scalar SlicingScenario.node[14].appl meanJitter_40_97 1.1685735e-05
scalar SlicingScenario.node[14].appl meanRxPacketSize_40_97 1510
scalar SlicingScenario.node[14].appl meanTxPacketSize_40_97 0
scalar SlicingScenario.node[14].appl meanRxThroughput_40_97 30368.713654454
scalar SlicingScenario.node[14].appl meanTxThroughput_40_97 0
scalar SlicingScenario.node[14].appl rxTimeOfService_40_97 71.600003369952
scalar SlicingScenario.node[14].appl txTimeOfService_40_97 0
scalar SlicingScenario.node[14].nic.phy80211p busyTime 0.13770469565219
scalar SlicingScenario.node[14].nic.phy80211p ncollisions 0
scalar SlicingScenario.node[14].nic.phy80211p UnderSensitivityPackets 723
scalar SlicingScenario.node[14].nic.mac1609_4 ReceivedUnicastPackets_CCH 0
scalar SlicingScenario.node[14].nic.mac1609_4 ReceivedBroadcasts_CCH 0
scalar SlicingScenario.node[14].nic.mac1609_4 SentPackets_CCH 0
scalar SlicingScenario.node[14].nic.mac1609_4 SentAcknowledgements_CCH 0
scalar SlicingScenario.node[14].nic.mac1609_4 SNIRLostPackets_CCH 0
scalar SlicingScenario.node[14].nic.mac1609_4 RXTXLostPackets_CCH 0
scalar SlicingScenario.node[14].nic.mac1609_4 TotalLostPackets_CCH 0
scalar SlicingScenario.node[14].nic.mac1609_4 DroppedPacketsInMac_CCH 0
scalar SlicingScenario.node[14].nic.mac1609_4 TooLittleTime_CCH 0
scalar SlicingScenario.node[14].nic.mac1609_4 TimesIntoBackoff_CCH 0
scalar SlicingScenario.node[14].nic.mac1609_4 SlotsBackoff_CCH 0
scalar SlicingScenario.node[14].nic.mac1609_4 NumInternalContention_CCH 0
scalar SlicingScenario.node[14].nic.mac1609_4 RemainingPacketsInEDCA_CCH 0
scalar SlicingScenario.node[14].nic.mac1609_4 totalBusyTime_CCH 0
scalar SlicingScenario.node[14].nic.mac1609_4 ReceivedUnicastPackets_SCH 0
scalar SlicingScenario.node[14].nic.mac1609_4 ReceivedBroadcasts_SCH 6138
scalar SlicingScenario.node[14].nic.mac1609_4 SentPackets_SCH 0
scalar SlicingScenario.node[14].nic.mac1609_4 SentAcknowledgements_SCH 0
scalar SlicingScenario.node[14].nic.mac1609_4 SNIRLostPackets_SCH 0
scalar SlicingScenario.node[14].nic.mac1609_4 RXTXLostPackets_SCH 0
scalar SlicingScenario.node[14].nic.mac1609_4 TotalLostPackets_SCH 0
scalar SlicingScenario.node[14].nic.mac1609_4 DroppedPacketsInMac_SCH 0
scalar SlicingScenario.node[14].nic.mac1609_4 TooLittleTime_SCH 0
scalar SlicingScenario.node[14].nic.mac1609_4 TimesIntoBackoff_SCH 0
scalar SlicingScenario.node[14].nic.mac1609_4 SlotsBackoff_SCH 0
scalar SlicingScenario.node[14].nic.mac1609_4 NumInternalContention_SCH 0
scalar SlicingScenario.node[14].nic.mac1609_4 RemainingPacketsInEDCA_SCH 0
scalar SlicingScenario.node[14].nic.mac1609_4 totalBusyTime_SCH 12.668832
scalar SlicingScenario.node[14].veinsmobility startTime 15
scalar SlicingScenario.node[14].veinsmobility totalTime 91
scalar SlicingScenario.node[14].veinsmobility stopTime 107
scalar SlicingScenario.node[14].veinsmobility minSpeed 10.610559156528
scalar SlicingScenario.node[14].veinsmobility maxSpeed 11.100021122736
scalar SlicingScenario.node[14].veinsmobility totalDistance 978.53219387597
scalar SlicingScenario.node[14].veinsmobility totalCO2Emission 158.23142224595
scalar SlicingScenario.node[15].appl txPackets_103 0
scalar SlicingScenario.node[15].appl rxPackets_103 0
scalar SlicingScenario.node[15].appl rxNeighborPackets_103 0
scalar SlicingScenario.node[15].appl meanDelay_103 0
scalar SlicingScenario.node[15].appl meanJitter_103 0
scalar SlicingScenario.node[15].appl meanRxPacketSize_103 0
scalar SlicingScenario.node[15].appl meanTxPacketSize_103 0
scalar SlicingScenario.node[15].appl meanRxThroughput_103 0
scalar SlicingScenario.node[15].appl meanTxThroughput_103 0
scalar SlicingScenario.node[15].appl rxTimeOfService_103 0
scalar SlicingScenario.node[15].appl txTimeOfService_103 0
scalar SlicingScenario.node[15].appl txPackets_41_103 0
scalar SlicingScenario.node[15].appl rxPackets_41_103 176
scalar SlicingScenario.node[15].appl rxNeighborPackets_41_103 3307
scalar SlicingScenario.node[15].appl meanDelay_41_103 0.002681787325
scalar SlicingScenario.node[15].appl meanJitter_41_103 5.0160275e-05
scalar SlicingScenario.node[15].appl meanRxPacketSize_41_103 1510
scalar SlicingScenario.node[15].appl meanTxPacketSize_41_103 0
scalar SlicingScenario.node[15].appl meanRxThroughput_41_103 30372.18682667
scalar SlicingScenario.node[15].appl meanTxThroughput_41_103 0
scalar SlicingScenario.node[15].appl rxTimeOfService_41_103 70.000886407463
scalar SlicingScenario.node[15].appl txTimeOfService_41_103 0
scalar SlicingScenario.node[15].nic.phy80211p busyTime 0.14008278260871
scalar SlicingScenario.node[15].nic.phy80211p ncollisions 0
scalar SlicingScenario.node[15].nic.phy80211p UnderSensitivityPackets 731
scalar SlicingScenario.node[15].nic.mac1609_4 ReceivedUnicastPackets_CCH 0
scalar SlicingScenario.node[15].nic.mac1609_4 ReceivedBroadcasts_CCH 0
scalar SlicingScenario.node[15].nic.mac1609_4 SentPackets_CCH 0
scalar SlicingScenario.node[15].nic.mac1609_4 SentAcknowledgements_CCH 0
scalar SlicingScenario.node[15].nic.mac1609_4 SNIRLostPackets_CCH 0
scalar SlicingScenario.node[15].nic.mac1609_4 RXTXLostPackets_CCH 0
scalar SlicingScenario.node[15].nic.mac1609_4 TotalLostPackets_CCH 0
scalar SlicingScenario.node[15].nic.mac1609_4 DroppedPacketsInMac_CCH 0
scalar SlicingScenario.node[15].nic.mac1609_4 TooLittleTime_CCH 0
scalar SlicingScenario.node[15].nic.mac1609_4 TimesIntoBackoff_CCH 0
scalar SlicingScenario.node[15].nic.mac1609_4 SlotsBackoff_CCH 0
scalar SlicingScenario.node[15].nic.mac1609_4 NumInternalContention_CCH 0
scalar SlicingScenario.node[15].nic.mac1609_4 RemainingPacketsInEDCA_CCH 0
scalar SlicingScenario.node[15].nic.mac1609_4 totalBusyTime_CCH 0
scalar SlicingScenario.node[15].nic.mac1609_4 ReceivedUnicastPackets_SCH 0
scalar SlicingScenario.node[15].nic.mac1609_4 ReceivedBroadcasts_SCH 6244
scalar SlicingScenario.node[15].nic.mac1609_4 SentPackets_SCH 0
scalar SlicingScenario.node[15].nic.mac1609_4 SentAcknowledgements_SCH 0
scalar SlicingScenario.node[15].nic.mac1609_4 SNIRLostPackets_SCH 0
scalar SlicingScenario.node[15].nic.mac1609_4 RXTXLostPackets_SCH 0
scalar SlicingScenario.node[15].nic.mac1609_4 TotalLostPackets_SCH 0
scalar SlicingScenario.node[15].nic.mac1609_4 DroppedPacketsInMac_SCH 0
scalar SlicingScenario.node[15].nic.mac1609_4 TooLittleTime_SCH 0
scalar SlicingScenario.node[15].nic.mac1609_4 TimesIntoBackoff_SCH 0
scalar SlicingScenario.node[15].nic.mac1609_4 SlotsBackoff_SCH 0
scalar SlicingScenario.node[15].nic.mac1609_4 NumInternalContention_SCH 0
scalar SlicingScenario.node[15].nic.mac1609_4 RemainingPacketsInEDCA_SCH 0
scalar SlicingScenario.node[15].nic.mac1609_4 totalBusyTime_SCH 12.887616
scalar SlicingScenario.node[15].veinsmobility startTime 16
scalar SlicingScenario.node[15].veinsmobility totalTime 91
scalar SlicingScenario.node[15].veinsmobility stopTime 108
scalar SlicingScenario.node[15].veinsmobility minSpeed 10.616517642527
scalar SlicingScenario.node[15].veinsmobility maxSpeed 11.092061789953
scalar SlicingScenario.node[15].veinsmobility totalDistance 976.73738750611
scalar SlicingScenario.node[15].veinsmobility totalCO2Emission 157.70380716666
scalar SlicingScenario.node[16].appl txPackets_109 0
scalar SlicingScenario.node[16].appl rxPackets_109 0
scalar SlicingScenario.node[16].appl rxNeighborPackets_109 0
scalar SlicingScenario.node[16].appl meanDelay_109 0
scalar SlicingScenario.node[16].appl meanJitter_109 0
scalar SlicingScenario.node[16].appl meanRxPacketSize_109 0
scalar SlicingScenario.node[16].appl meanTxPacketSize_109 0
scalar SlicingScenario.node[16].appl meanRxThroughput_109 0
scalar SlicingScenario.node[16].appl meanTxThroughput_109 0
scalar SlicingScenario.node[16].appl rxTimeOfService_109 0
scalar SlicingScenario.node[16].appl txTimeOfService_109 0
scalar SlicingScenario.node[16].appl txPackets_40_109 0
scalar SlicingScenario.node[16].appl rxPackets_40_109 175
scalar SlicingScenario.node[16].appl rxNeighborPackets_40_109 2629
scalar SlicingScenario.node[16].appl meanDelay_40_109 0.002072180122
scalar SlicingScenario.node[16].appl meanJitter_40_109 1.2057523e-05
scalar SlicingScenario.node[16].appl meanRxPacketSize_40_109 1510
scalar SlicingScenario.node[16].appl meanTxPacketSize_40_109 0
scalar SlicingScenario.node[16].appl meanRxThroughput_40_109 30373.563459724
scalar SlicingScenario.node[16].appl meanTxThroughput_40_109 0
scalar SlicingScenario.node[16].appl rxTimeOfService_40_109 69.599999446993
scalar SlicingScenario.node[16].appl txTimeOfService_40_109 0
scalar SlicingScenario.node[16].nic.phy80211p busyTime 0.1423711304348
scalar SlicingScenario.node[16].nic.phy80211p ncollisions 0
scalar SlicingScenario.node[16].nic.phy80211p UnderSensitivityPackets 745
scalar SlicingScenario.node[16].nic.mac1609_4 ReceivedUnicastPackets_CCH 0
scalar SlicingScenario.node[16].nic.mac1609_4 ReceivedBroadcasts_CCH 0
scalar SlicingScenario.node[16].nic.mac1609_4 SentPackets_CCH 0
scalar SlicingScenario.node[16].nic.mac1609_4 SentAcknowledgements_CCH 0
scalar SlicingScenario.node[16].nic.mac1609_4 SNIRLostPackets_CCH 0
scalar SlicingScenario.node[16].nic.mac1609_4 RXTXLostPackets_CCH 0
scalar SlicingScenario.node[16].nic.mac1609_4 TotalLostPackets_CCH 0
scalar SlicingScenario.node[16].nic.mac1609_4 DroppedPacketsInMac_CCH 0
scalar SlicingScenario.node[16].nic.mac1609_4 TooLittleTime_CCH 0
scalar SlicingScenario.node[16].nic.mac1609_4 TimesIntoBackoff_CCH 0
scalar SlicingScenario.node[16].nic.mac1609_4 SlotsBackoff_CCH 0
scalar SlicingScenario.node[16].nic.mac1609_4 NumInternalContention_CCH 0
scalar SlicingScenario.node[16].nic.mac1609_4 RemainingPacketsInEDCA_CCH 0
scalar SlicingScenario.node[16].nic.mac1609_4 totalBusyTime_CCH 0
scalar SlicingScenario.node[16].nic.mac1609_4 ReceivedUnicastPackets_SCH 0
scalar SlicingScenario.node[16].nic.mac1609_4 ReceivedBroadcasts_SCH 6346
scalar SlicingScenario.node[16].nic.mac1609_4 SentPackets_SCH 0
scalar SlicingScenario.node[16].nic.mac1609_4 SentAcknowledgements_SCH 0
scalar SlicingScenario.node[16].nic.mac1609_4 SNIRLostPackets_SCH 0
scalar SlicingScenario.node[16].nic.mac1609_4 RXTXLostPackets_SCH 0
scalar SlicingScenario.node[16].nic.mac1609_4 TotalLostPackets_SCH 0
scalar SlicingScenario.node[16].nic.mac1609_4 DroppedPacketsInMac_SCH 0
scalar SlicingScenario.node[16].nic.mac1609_4 TooLittleTime_SCH 0
scalar SlicingScenario.node[16].nic.mac1609_4 TimesIntoBackoff_SCH 0
scalar SlicingScenario.node[16].nic.mac1609_4 SlotsBackoff_SCH 0
scalar SlicingScenario.node[16].nic.mac1609_4 NumInternalContention_SCH 0
scalar SlicingScenario.node[16].nic.mac1609_4 RemainingPacketsInEDCA_SCH 0
scalar SlicingScenario.node[16].nic.mac1609_4 totalBusyTime_SCH 13.098144
scalar SlicingScenario.node[16].veinsmobility startTime 17
scalar SlicingScenario.node[16].veinsmobility totalTime 91
scalar SlicingScenario.node[16].veinsmobility stopTime 109
scalar SlicingScenario.node[16].veinsmobility minSpeed 10.613815893317
scalar SlicingScenario.node[16].veinsmobility maxSpeed 11.103752875132
scalar SlicingScenario.node[16].veinsmobility totalDistance 978.79241990368
scalar SlicingScenario.node[16].veinsmobility totalCO2Emission 158.15056614358
scalar SlicingScenario.node[17].appl txPackets_115 0
scalar SlicingScenario.node[17].appl rxPackets_115 0
scalar SlicingScenario.node[17].appl rxNeighborPackets_115 0
scalar SlicingScenario.node[17].appl meanDelay_115 0
scalar SlicingScenario.node[17].appl meanJitter_115 0
scalar SlicingScenario.node[17].appl meanRxPacketSize_115 0
scalar SlicingScenario.node[17].appl meanTxPacketSize_115 0
scalar SlicingScenario.node[17].appl meanRxThroughput_115 0
scalar SlicingScenario.node[17].appl meanTxThroughput_115 0
scalar SlicingScenario.node[17].appl rxTimeOfService_115 0
scalar SlicingScenario.node[17].appl txTimeOfService_115 0
scalar SlicingScenario.node[17].appl txPackets_40_115 0
scalar SlicingScenario.node[17].appl rxPackets_40_115 175
scalar SlicingScenario.node[17].appl rxNeighborPackets_40_115 2719
scalar SlicingScenario.node[17].appl meanDelay_40_115 0.003114450001
scalar SlicingScenario.node[17].appl meanJitter_40_115 5.0424497e-05
scalar SlicingScenario.node[17].appl meanRxPacketSize_40_115 1510
scalar SlicingScenario.node[17].appl meanTxPacketSize_40_115 0
scalar SlicingScenario.node[17].appl meanRxThroughput_40_115 30373.573050235
scalar SlicingScenario.node[17].appl meanTxThroughput_40_115 0
scalar SlicingScenario.node[17].appl rxTimeOfService_40_115 69.599977470666
scalar SlicingScenario.node[17].appl txTimeOfService_40_115 0
scalar SlicingScenario.node[17].nic.phy80211p busyTime 0.14541212903227
scalar SlicingScenario.node[17].nic.phy80211p ncollisions 0
scalar SlicingScenario.node[17].nic.phy80211p UnderSensitivityPackets 791
scalar SlicingScenario.node[17].nic.mac1609_4 ReceivedUnicastPackets_CCH 0
scalar SlicingScenario.node[17].nic.mac1609_4 ReceivedBroadcasts_CCH 0
scalar SlicingScenario.node[17].nic.mac1609_4 SentPackets_CCH 0
scalar SlicingScenario.node[17].nic.mac1609_4 SentAcknowledgements_CCH 0
scalar SlicingScenario.node[17].nic.mac1609_4 SNIRLostPackets_CCH 0
scalar SlicingScenario.node[17].nic.mac1609_4 RXTXLostPackets_CCH 0
scalar SlicingScenario.node[17].nic.mac1609_4 TotalLostPackets_CCH 0
scalar SlicingScenario.node[17].nic.mac1609_4 DroppedPacketsInMac_CCH 0
scalar SlicingScenario.node[17].nic.mac1609_4 TooLittleTime_CCH 0
scalar SlicingScenario.node[17].nic.mac1609_4 TimesIntoBackoff_CCH 0
scalar SlicingScenario.node[17].nic.mac1609_4 SlotsBackoff_CCH 0
scalar SlicingScenario.node[17].nic.mac1609_4 NumInternalContention_CCH 0
scalar SlicingScenario.node[17].nic.mac1609_4 RemainingPacketsInEDCA_CCH 0
scalar SlicingScenario.node[17].nic.mac1609_4 totalBusyTime_CCH 0
scalar SlicingScenario.node[17].nic.mac1609_4 ReceivedUnicastPackets_SCH 0
scalar SlicingScenario.node[17].nic.mac1609_4 ReceivedBroadcasts_SCH 6552
scalar SlicingScenario.node[17].nic.mac1609_4 SentPackets_SCH 0
scalar SlicingScenario.node[17].nic.mac1609_4 SentAcknowledgements_SCH 0
scalar SlicingScenario.node[17].nic.mac1609_4 SNIRLostPackets_SCH 0
scalar SlicingScenario.node[17].nic.mac1609_4 RXTXLostPackets_SCH 0
scalar SlicingScenario.node[17].nic.mac1609_4 TotalLostPackets_SCH 0
scalar SlicingScenario.node[17].nic.mac1609_4 DroppedPacketsInMac_SCH 0
scalar SlicingScenario.node[17].nic.mac1609_4 TooLittleTime_SCH 0
scalar SlicingScenario.node[17].nic.mac1609_4 TimesIntoBackoff_SCH 0
scalar SlicingScenario.node[17].nic.mac1609_4 SlotsBackoff_SCH 0
scalar SlicingScenario.node[17].nic.mac1609_4 NumInternalContention_SCH 0
scalar SlicingScenario.node[17].nic.mac1609_4 RemainingPacketsInEDCA_SCH 0
scalar SlicingScenario.node[17].nic.mac1609_4 totalBusyTime_SCH 13.523328
scalar SlicingScenario.node[17].veinsmobility startTime 18
scalar SlicingScenario.node[17].veinsmobility totalTime 92
scalar SlicingScenario.node[17].veinsmobility stopTime 111
scalar SlicingScenario.node[17].veinsmobility minSpeed 8.0202094702846
scalar SlicingScenario.node[17].veinsmobility maxSpeed 11.099988301881
scalar SlicingScenario.node[17].veinsmobility totalDistance 983.12643257676
scalar SlicingScenario.node[17].veinsmobility totalCO2Emission 166.94751071949
scalar SlicingScenario.node[19].appl txPackets_127 0
scalar SlicingScenario.node[19].appl rxPackets_127 0
scalar SlicingScenario.node[19].appl rxNeighborPackets_127 0
scalar SlicingScenario.node[19].appl meanDelay_127 0
scalar SlicingScenario.node[19].appl meanJitter_127 0
scalar SlicingScenario.node[19].appl meanRxPacketSize_127 0
scalar SlicingScenario.node[19].appl meanTxPacketSize_127 0
scalar SlicingScenario.node[19].appl meanRxThroughput_127 0
scalar SlicingScenario.node[19].appl meanTxThroughput_127 0
scalar SlicingScenario.node[19].appl rxTimeOfService_127 0
scalar SlicingScenario.node[19].appl txTimeOfService_127 0
scalar SlicingScenario.node[19].appl txPackets_40_127 0
scalar SlicingScenario.node[19].appl rxPackets_40_127 166
scalar SlicingScenario.node[19].appl rxNeighborPackets_40_127 2777
scalar SlicingScenario.node[19].appl meanDelay_40_127 0.00207163031
scalar SlicingScenario.node[19].appl meanJitter_40_127 1.3062762e-05
scalar SlicingScenario.node[19].appl meanRxPacketSize_40_127 1510
scalar SlicingScenario.node[19].appl meanTxPacketSize_40_127 0
scalar SlicingScenario.node[19].appl meanRxThroughput_40_127 30383.007489373
scalar SlicingScenario.node[19].appl meanTxThroughput_40_127 0
scalar SlicingScenario.node[19].appl rxTimeOfService_40_127 66.000049557351
scalar SlicingScenario.node[19].appl txTimeOfService_40_127 0
scalar SlicingScenario.node[19].nic.phy80211p busyTime 0.14937078260871
scalar SlicingScenario.node[19].nic.phy80211p ncollisions 0
scalar SlicingScenario.node[19].nic.phy80211p UnderSensitivityPackets 776
scalar SlicingScenario.node[19].nic.mac1609_4 ReceivedUnicastPackets_CCH 0
scalar SlicingScenario.node[19].nic.mac1609_4 ReceivedBroadcasts_CCH 0
scalar SlicingScenario.node[19].nic.mac1609_4 SentPackets_CCH 0
scalar SlicingScenario.node[19].nic.mac1609_4 SentAcknowledgements_CCH 0
scalar SlicingScenario.node[19].nic.mac1609_4 SNIRLostPackets_CCH 0
scalar SlicingScenario.node[19].nic.mac1609_4 RXTXLostPackets_CCH 0
scalar SlicingScenario.node[19].nic.mac1609_4 TotalLostPackets_CCH 0
scalar SlicingScenario.node[19].nic.mac1609_4 DroppedPacketsInMac_CCH 0
scalar SlicingScenario.node[19].nic.mac1609_4 TooLittleTime_CCH 0
scalar SlicingScenario.node[19].nic.mac1609_4 TimesIntoBackoff_CCH 0
scalar SlicingScenario.node[19].nic.mac1609_4 SlotsBackoff_CCH 0
scalar SlicingScenario.node[19].nic.mac1609_4 NumInternalContention_CCH 0
scalar SlicingScenario.node[19].nic.mac1609_4 RemainingPacketsInEDCA_CCH 0
scalar SlicingScenario.node[19].nic.mac1609_4 totalBusyTime_CCH 0
scalar SlicingScenario.node[19].nic.mac1609_4 ReceivedUnicastPackets_SCH 0
scalar SlicingScenario.node[19].nic.mac1609_4 ReceivedBroadcasts_SCH 6658
scalar SlicingScenario.node[19].nic.mac1609_4 SentPackets_SCH 0
scalar SlicingScenario.node[19].nic.mac1609_4 SentAcknowledgements_SCH 0
scalar SlicingScenario.node[19].nic.mac1609_4 SNIRLostPackets_SCH 0
scalar SlicingScenario.node[19].nic.mac1609_4 RXTXLostPackets_SCH 0
scalar SlicingScenario.node[19].nic.mac1609_4 TotalLostPackets_SCH 0
scalar SlicingScenario.node[19].nic.mac1609_4 DroppedPacketsInMac_SCH 0
scalar SlicingScenario.node[19].nic.mac1609_4 TooLittleTime_SCH 0
scalar SlicingScenario.node[19].nic.mac1609_4 TimesIntoBackoff_SCH 0
scalar SlicingScenario.node[19].nic.mac1609_4 SlotsBackoff_SCH 0
scalar SlicingScenario.node[19].nic.mac1609_4 NumInternalContention_SCH 0
scalar SlicingScenario.node[19].nic.mac1609_4 RemainingPacketsInEDCA_SCH 0
scalar SlicingScenario.node[19].nic.mac1609_4 totalBusyTime_SCH 13.742112
scalar SlicingScenario.node[19].veinsmobility startTime 20
scalar SlicingScenario.node[19].veinsmobility totalTime 91
scalar SlicingScenario.node[19].veinsmobility stopTime 112
scalar SlicingScenario.node[19].veinsmobility minSpeed 10.614335548379
scalar SlicingScenario.node[19].veinsmobility maxSpeed 11.101073722835
scalar SlicingScenario.node[19].veinsmobility totalDistance 978.38989210563
scalar SlicingScenario.node[19].veinsmobility totalCO2Emission 157.00612005751
scalar SlicingScenario.node[20].appl txPackets_133 0
scalar SlicingScenario.node[20].appl rxPackets_133 0
scalar SlicingScenario.node[20].appl rxNeighborPackets_133 0
scalar SlicingScenario.node[20].appl meanDelay_133 0
scalar SlicingScenario.node[20].appl meanJitter_133 0
scalar SlicingScenario.node[20].appl meanRxPacketSize_133 0
scalar SlicingScenario.node[20].appl meanTxPacketSize_133 0
scalar SlicingScenario.node[20].appl meanRxThroughput_133 0
scalar SlicingScenario.node[20].appl meanTxThroughput_133 0
scalar SlicingScenario.node[20].appl rxTimeOfService_133 0
scalar SlicingScenario.node[20].appl txTimeOfService_133 0
scalar SlicingScenario.node[20].appl txPackets_41_133 0
scalar SlicingScenario.node[20].appl rxPackets_41_133 164
scalar SlicingScenario.node[20].appl rxNeighborPackets_41_133 3612
scalar SlicingScenario.node[20].appl meanDelay_41_133 0.002074122368
scalar SlicingScenario.node[20].appl meanJitter_41_133 1.2808434e-05
scalar SlicingScenario.node[20].appl meanRxPacketSize_41_133 1510
scalar SlicingScenario.node[20].appl meanTxPacketSize_41_133 0
scalar SlicingScenario.node[20].appl meanRxThroughput_41_133 30385.279994148
scalar SlicingScenario.node[20].appl meanTxThroughput_41_133 0
scalar SlicingScenario.node[20].appl rxTimeOfService_41_133 65.199991587424
scalar SlicingScenario.node[20].appl txTimeOfService_41_133 0
scalar SlicingScenario.node[20].nic.phy80211p busyTime 0.15163669565219
scalar SlicingScenario.node[20].nic.phy80211p ncollisions 0
scalar SlicingScenario.node[20].nic.phy80211p UnderSensitivityPackets 792
scalar SlicingScenario.node[20].nic.mac1609_4 ReceivedUnicastPackets_CCH 0
scalar SlicingScenario.node[20].nic.mac1609_4 ReceivedBroadcasts_CCH 0
[...]
scalar SlicingScenario.rsu[0].appl rxNeighborPackets_41_217 0
scalar SlicingScenario.rsu[0].appl meanDelay_41_217 0
scalar SlicingScenario.rsu[0].appl meanJitter_41_217 0
scalar SlicingScenario.rsu[0].appl meanRxPacketSize_41_217 0
scalar SlicingScenario.rsu[0].appl meanTxPacketSize_41_217 1510
scalar SlicingScenario.rsu[0].appl meanRxThroughput_41_217 0
scalar SlicingScenario.rsu[0].appl meanTxThroughput_41_217 30228.145386766
scalar SlicingScenario.rsu[0].appl rxTimeOfService_41_217 0
scalar SlicingScenario.rsu[0].appl txTimeOfService_41_217 429.2
scalar SlicingScenario.rsu[0].appl txPackets_41_229 1064
scalar SlicingScenario.rsu[0].appl rxPackets_41_229 0
scalar SlicingScenario.rsu[0].appl rxNeighborPackets_41_229 0
scalar SlicingScenario.rsu[0].appl meanDelay_41_229 0
scalar SlicingScenario.rsu[0].appl meanJitter_41_229 0
scalar SlicingScenario.rsu[0].appl meanRxPacketSize_41_229 0
scalar SlicingScenario.rsu[0].appl meanTxPacketSize_41_229 1510
scalar SlicingScenario.rsu[0].appl meanRxThroughput_41_229 0
scalar SlicingScenario.rsu[0].appl meanTxThroughput_41_229 30228.410159925
scalar SlicingScenario.rsu[0].appl rxTimeOfService_41_229 0
scalar SlicingScenario.rsu[0].appl txTimeOfService_41_229 425.2
scalar SlicingScenario.rsu[0].appl txPackets_41_235 1060
scalar SlicingScenario.rsu[0].appl rxPackets_41_235 0
scalar SlicingScenario.rsu[0].appl rxNeighborPackets_41_235 0
scalar SlicingScenario.rsu[0].appl meanDelay_41_235 0
scalar SlicingScenario.rsu[0].appl meanJitter_41_235 0
scalar SlicingScenario.rsu[0].appl meanRxPacketSize_41_235 0
scalar SlicingScenario.rsu[0].appl meanTxPacketSize_41_235 1510
scalar SlicingScenario.rsu[0].appl meanRxThroughput_41_235 0
scalar SlicingScenario.rsu[0].appl meanTxThroughput_41_235 30228.517469311
scalar SlicingScenario.rsu[0].appl rxTimeOfService_41_235 0
scalar SlicingScenario.rsu[0].appl txTimeOfService_41_235 423.6
scalar SlicingScenario.rsu[0].appl txPackets_41_241 1053
scalar SlicingScenario.rsu[0].appl rxPackets_41_241 0
scalar SlicingScenario.rsu[0].appl rxNeighborPackets_41_241 0
scalar SlicingScenario.rsu[0].appl meanDelay_41_241 0
scalar SlicingScenario.rsu[0].appl meanJitter_41_241 0
scalar SlicingScenario.rsu[0].appl meanRxPacketSize_41_241 0
scalar SlicingScenario.rsu[0].appl meanTxPacketSize_41_241 1510
scalar SlicingScenario.rsu[0].appl meanRxThroughput_41_241 0
scalar SlicingScenario.rsu[0].appl meanTxThroughput_41_241 30228.707224335
scalar SlicingScenario.rsu[0].appl rxTimeOfService_41_241 0
scalar SlicingScenario.rsu[0].appl txTimeOfService_41_241 420.8
scalar SlicingScenario.rsu[0].appl txPackets_41_259 1039
scalar SlicingScenario.rsu[0].appl rxPackets_41_259 0
scalar SlicingScenario.rsu[0].appl rxNeighborPackets_41_259 0
scalar SlicingScenario.rsu[0].appl meanDelay_41_259 0
scalar SlicingScenario.rsu[0].appl meanJitter_41_259 0
scalar SlicingScenario.rsu[0].appl meanRxPacketSize_41_259 0
scalar SlicingScenario.rsu[0].appl meanTxPacketSize_41_259 1510
scalar SlicingScenario.rsu[0].appl meanRxThroughput_41_259 0
scalar SlicingScenario.rsu[0].appl meanTxThroughput_41_259 30229.094412331
scalar SlicingScenario.rsu[0].appl rxTimeOfService_41_259 0
scalar SlicingScenario.rsu[0].appl txTimeOfService_41_259 415.2
scalar SlicingScenario.rsu[0].appl txPackets_41_265 1034
scalar SlicingScenario.rsu[0].appl rxPackets_41_265 0
scalar SlicingScenario.rsu[0].appl rxNeighborPackets_41_265 0
scalar SlicingScenario.rsu[0].appl meanDelay_41_265 0
scalar SlicingScenario.rsu[0].appl meanJitter_41_265 0
scalar SlicingScenario.rsu[0].appl meanRxPacketSize_41_265 0
scalar SlicingScenario.rsu[0].appl meanTxPacketSize_41_265 1510
scalar SlicingScenario.rsu[0].appl meanRxThroughput_41_265 0
scalar SlicingScenario.rsu[0].appl meanTxThroughput_41_265 30229.235237173
scalar SlicingScenario.rsu[0].appl rxTimeOfService_41_265 0
scalar SlicingScenario.rsu[0].appl txTimeOfService_41_265 413.2
scalar SlicingScenario.rsu[0].appl txPackets_41_271 1028
scalar SlicingScenario.rsu[0].appl rxPackets_41_271 0
scalar SlicingScenario.rsu[0].appl rxNeighborPackets_41_271 0
scalar SlicingScenario.rsu[0].appl meanDelay_41_271 0
scalar SlicingScenario.rsu[0].appl meanJitter_41_271 0
scalar SlicingScenario.rsu[0].appl meanRxPacketSize_41_271 0
scalar SlicingScenario.rsu[0].appl meanTxPacketSize_41_271 1510
scalar SlicingScenario.rsu[0].appl meanRxThroughput_41_271 0
scalar SlicingScenario.rsu[0].appl meanTxThroughput_41_271 30229.406037001
scalar SlicingScenario.rsu[0].appl rxTimeOfService_41_271 0
scalar SlicingScenario.rsu[0].appl txTimeOfService_41_271 410.8
scalar SlicingScenario.rsu[0].appl txPackets_41_283 1019
scalar SlicingScenario.rsu[0].appl rxPackets_41_283 0
scalar SlicingScenario.rsu[0].appl rxNeighborPackets_41_283 0
scalar SlicingScenario.rsu[0].appl meanDelay_41_283 0
scalar SlicingScenario.rsu[0].appl meanJitter_41_283 0
scalar SlicingScenario.rsu[0].appl meanRxPacketSize_41_283 0
scalar SlicingScenario.rsu[0].appl meanTxPacketSize_41_283 1510
scalar SlicingScenario.rsu[0].appl meanRxThroughput_41_283 0
scalar SlicingScenario.rsu[0].appl meanTxThroughput_41_283 30229.666011788
scalar SlicingScenario.rsu[0].appl rxTimeOfService_41_283 0
scalar SlicingScenario.rsu[0].appl txTimeOfService_41_283 407.2
scalar SlicingScenario.rsu[0].appl txPackets_41_295 1010
scalar SlicingScenario.rsu[0].appl rxPackets_41_295 0
scalar SlicingScenario.rsu[0].appl rxNeighborPackets_41_295 0
scalar SlicingScenario.rsu[0].appl meanDelay_41_295 0
scalar SlicingScenario.rsu[0].appl meanJitter_41_295 0
scalar SlicingScenario.rsu[0].appl meanRxPacketSize_41_295 0
scalar SlicingScenario.rsu[0].appl meanTxPacketSize_41_295 1510
scalar SlicingScenario.rsu[0].appl meanRxThroughput_41_295 0
scalar SlicingScenario.rsu[0].appl meanTxThroughput_41_295 30229.930624381
scalar SlicingScenario.rsu[0].appl rxTimeOfService_41_295 0
scalar SlicingScenario.rsu[0].appl txTimeOfService_41_295 403.6
scalar SlicingScenario.rsu[0].appl txPackets_41_301 1005
scalar SlicingScenario.rsu[0].appl rxPackets_41_301 0
scalar SlicingScenario.rsu[0].appl rxNeighborPackets_41_301 0
scalar SlicingScenario.rsu[0].appl meanDelay_41_301 0
scalar SlicingScenario.rsu[0].appl meanJitter_41_301 0
scalar SlicingScenario.rsu[0].appl meanRxPacketSize_41_301 0
scalar SlicingScenario.rsu[0].appl meanTxPacketSize_41_301 1510
scalar SlicingScenario.rsu[0].appl meanRxThroughput_41_301 0
scalar SlicingScenario.rsu[0].appl meanTxThroughput_41_301 30230.079681275
scalar SlicingScenario.rsu[0].appl rxTimeOfService_41_301 0
scalar SlicingScenario.rsu[0].appl txTimeOfService_41_301 401.6
scalar SlicingScenario.rsu[0].appl txPackets_41_313 994
scalar SlicingScenario.rsu[0].appl rxPackets_41_313 0
scalar SlicingScenario.rsu[0].appl rxNeighborPackets_41_313 0
scalar SlicingScenario.rsu[0].appl meanDelay_41_313 0
scalar SlicingScenario.rsu[0].appl meanJitter_41_313 0
scalar SlicingScenario.rsu[0].appl meanRxPacketSize_41_313 0
scalar SlicingScenario.rsu[0].appl meanTxPacketSize_41_313 1510
scalar SlicingScenario.rsu[0].appl meanRxThroughput_41_313 0
scalar SlicingScenario.rsu[0].appl meanTxThroughput_41_313 30230.412890232
scalar SlicingScenario.rsu[0].appl rxTimeOfService_41_313 0
scalar SlicingScenario.rsu[0].appl txTimeOfService_41_313 397.2
scalar SlicingScenario.rsu[0].appl txPackets_41_319 989
scalar SlicingScenario.rsu[0].appl rxPackets_41_319 0
scalar SlicingScenario.rsu[0].appl rxNeighborPackets_41_319 0
scalar SlicingScenario.rsu[0].appl meanDelay_41_319 0
scalar SlicingScenario.rsu[0].appl meanJitter_41_319 0
scalar SlicingScenario.rsu[0].appl meanRxPacketSize_41_319 0
scalar SlicingScenario.rsu[0].appl meanTxPacketSize_41_319 1510
scalar SlicingScenario.rsu[0].appl meanRxThroughput_41_319 0
scalar SlicingScenario.rsu[0].appl meanTxThroughput_41_319 30230.566801619
scalar SlicingScenario.rsu[0].appl rxTimeOfService_41_319 0
scalar SlicingScenario.rsu[0].appl txTimeOfService_41_319 395.2
scalar SlicingScenario.rsu[0].appl txPackets_41_325 983
scalar SlicingScenario.rsu[0].appl rxPackets_41_325 0
scalar SlicingScenario.rsu[0].appl rxNeighborPackets_41_325 0
scalar SlicingScenario.rsu[0].appl meanDelay_41_325 0
scalar SlicingScenario.rsu[0].appl meanJitter_41_325 0
scalar SlicingScenario.rsu[0].appl meanRxPacketSize_41_325 0
scalar SlicingScenario.rsu[0].appl meanTxPacketSize_41_325 1510
scalar SlicingScenario.rsu[0].appl meanRxThroughput_41_325 0
scalar SlicingScenario.rsu[0].appl meanTxThroughput_41_325 30230.753564155
scalar SlicingScenario.rsu[0].appl rxTimeOfService_41_325 0
scalar SlicingScenario.rsu[0].appl txTimeOfService_41_325 392.8
scalar SlicingScenario.rsu[0].appl txPackets_41_343 969
scalar SlicingScenario.rsu[0].appl rxPackets_41_343 0
scalar SlicingScenario.rsu[0].appl rxNeighborPackets_41_343 0
scalar SlicingScenario.rsu[0].appl meanDelay_41_343 0
scalar SlicingScenario.rsu[0].appl meanJitter_41_343 0
scalar SlicingScenario.rsu[0].appl meanRxPacketSize_41_343 0
scalar SlicingScenario.rsu[0].appl meanTxPacketSize_41_343 1510
scalar SlicingScenario.rsu[0].appl meanRxThroughput_41_343 0
scalar SlicingScenario.rsu[0].appl meanTxThroughput_41_343 30231.198347107
scalar SlicingScenario.rsu[0].appl rxTimeOfService_41_343 0
scalar SlicingScenario.rsu[0].appl txTimeOfService_41_343 387.2
scalar SlicingScenario.rsu[0].appl txPackets_41_355 960
scalar SlicingScenario.rsu[0].appl rxPackets_41_355 0
scalar SlicingScenario.rsu[0].appl rxNeighborPackets_41_355 0
scalar SlicingScenario.rsu[0].appl meanDelay_41_355 0
scalar SlicingScenario.rsu[0].appl meanJitter_41_355 0
scalar SlicingScenario.rsu[0].appl meanRxPacketSize_41_355 0
scalar SlicingScenario.rsu[0].appl meanTxPacketSize_41_355 1510
scalar SlicingScenario.rsu[0].appl meanRxThroughput_41_355 0
scalar SlicingScenario.rsu[0].appl meanTxThroughput_41_355 30231.491136601
scalar SlicingScenario.rsu[0].appl rxTimeOfService_41_355 0
scalar SlicingScenario.rsu[0].appl txTimeOfService_41_355 383.6
scalar SlicingScenario.rsu[0].appl txPackets_41_373 945
scalar SlicingScenario.rsu[0].appl rxPackets_41_373 0
scalar SlicingScenario.rsu[0].appl rxNeighborPackets_41_373 0
scalar SlicingScenario.rsu[0].appl meanDelay_41_373 0
scalar SlicingScenario.rsu[0].appl meanJitter_41_373 0
scalar SlicingScenario.rsu[0].appl meanRxPacketSize_41_373 0
scalar SlicingScenario.rsu[0].appl meanTxPacketSize_41_373 1510
scalar SlicingScenario.rsu[0].appl meanRxThroughput_41_373 0
scalar SlicingScenario.rsu[0].appl meanTxThroughput_41_373 30231.991525424
scalar SlicingScenario.rsu[0].appl rxTimeOfService_41_373 0
scalar SlicingScenario.rsu[0].appl txTimeOfService_41_373 377.6
scalar SlicingScenario.rsu[0].appl txPackets_41_385 935
scalar SlicingScenario.rsu[0].appl rxPackets_41_385 0
scalar SlicingScenario.rsu[0].appl rxNeighborPackets_41_385 0
scalar SlicingScenario.rsu[0].appl meanDelay_41_385 0
scalar SlicingScenario.rsu[0].appl meanJitter_41_385 0
scalar SlicingScenario.rsu[0].appl meanRxPacketSize_41_385 0
scalar SlicingScenario.rsu[0].appl meanTxPacketSize_41_385 1510
scalar SlicingScenario.rsu[0].appl meanRxThroughput_41_385 0
scalar SlicingScenario.rsu[0].appl meanTxThroughput_41_385 30232.334047109
scalar SlicingScenario.rsu[0].appl rxTimeOfService_41_385 0
scalar SlicingScenario.rsu[0].appl txTimeOfService_41_385 373.6
scalar SlicingScenario.rsu[0].appl txPackets_41_397 923
scalar SlicingScenario.rsu[0].appl rxPackets_41_397 0
scalar SlicingScenario.rsu[0].appl rxNeighborPackets_41_397 0
scalar SlicingScenario.rsu[0].appl meanDelay_41_397 0
scalar SlicingScenario.rsu[0].appl meanJitter_41_397 0
scalar SlicingScenario.rsu[0].appl meanRxPacketSize_41_397 0
scalar SlicingScenario.rsu[0].appl meanTxPacketSize_41_397 1510
scalar SlicingScenario.rsu[0].appl meanRxThroughput_41_397 0
scalar SlicingScenario.rsu[0].appl meanTxThroughput_41_397 30232.754880694
scalar SlicingScenario.rsu[0].appl rxTimeOfService_41_397 0
scalar SlicingScenario.rsu[0].appl txTimeOfService_41_397 368.8
scalar SlicingScenario.rsu[0].appl txPackets_41_409 914
scalar SlicingScenario.rsu[0].appl rxPackets_41_409 0
scalar SlicingScenario.rsu[0].appl rxNeighborPackets_41_409 0
scalar SlicingScenario.rsu[0].appl meanDelay_41_409 0
scalar SlicingScenario.rsu[0].appl meanJitter_41_409 0
scalar SlicingScenario.rsu[0].appl meanRxPacketSize_41_409 0
scalar SlicingScenario.rsu[0].appl meanTxPacketSize_41_409 1510
scalar SlicingScenario.rsu[0].appl meanRxThroughput_41_409 0
scalar SlicingScenario.rsu[0].appl meanTxThroughput_41_409 30233.077765608
scalar SlicingScenario.rsu[0].appl rxTimeOfService_41_409 0
scalar SlicingScenario.rsu[0].appl txTimeOfService_41_409 365.2
scalar SlicingScenario.rsu[0].appl txPackets_41_415 909
scalar SlicingScenario.rsu[0].appl rxPackets_41_415 0
scalar SlicingScenario.rsu[0].appl rxNeighborPackets_41_415 0
scalar SlicingScenario.rsu[0].appl meanDelay_41_415 0
scalar SlicingScenario.rsu[0].appl meanJitter_41_415 0
scalar SlicingScenario.rsu[0].appl meanRxPacketSize_41_415 0
scalar SlicingScenario.rsu[0].appl meanTxPacketSize_41_415 1510
scalar SlicingScenario.rsu[0].appl meanRxThroughput_41_415 0
scalar SlicingScenario.rsu[0].appl meanTxThroughput_41_415 30233.259911894
scalar SlicingScenario.rsu[0].appl rxTimeOfService_41_415 0
scalar SlicingScenario.rsu[0].appl txTimeOfService_41_415 363.2
scalar SlicingScenario.rsu[0].appl txPackets_41_427 900
scalar SlicingScenario.rsu[0].appl rxPackets_41_427 0
scalar SlicingScenario.rsu[0].appl rxNeighborPackets_41_427 0
scalar SlicingScenario.rsu[0].appl meanDelay_41_427 0
scalar SlicingScenario.rsu[0].appl meanJitter_41_427 0
scalar SlicingScenario.rsu[0].appl meanRxPacketSize_41_427 0
scalar SlicingScenario.rsu[0].appl meanTxPacketSize_41_427 1510
scalar SlicingScenario.rsu[0].appl meanRxThroughput_41_427 0
scalar SlicingScenario.rsu[0].appl meanTxThroughput_41_427 30233.592880979
scalar SlicingScenario.rsu[0].appl rxTimeOfService_41_427 0
scalar SlicingScenario.rsu[0].appl txTimeOfService_41_427 359.6
scalar SlicingScenario.rsu[0].appl txPackets_41_433 893
scalar SlicingScenario.rsu[0].appl rxPackets_41_433 0
scalar SlicingScenario.rsu[0].appl rxNeighborPackets_41_433 0
scalar SlicingScenario.rsu[0].appl meanDelay_41_433 0
scalar SlicingScenario.rsu[0].appl meanJitter_41_433 0
scalar SlicingScenario.rsu[0].appl meanRxPacketSize_41_433 0
scalar SlicingScenario.rsu[0].appl meanTxPacketSize_41_433 1510
scalar SlicingScenario.rsu[0].appl meanRxThroughput_41_433 0
scalar SlicingScenario.rsu[0].appl meanTxThroughput_41_433 30233.856502242
scalar SlicingScenario.rsu[0].appl rxTimeOfService_41_433 0
scalar SlicingScenario.rsu[0].appl txTimeOfService_41_433 356.8
scalar SlicingScenario.rsu[0].appl txPackets_41_451 879
scalar SlicingScenario.rsu[0].appl rxPackets_41_451 0
scalar SlicingScenario.rsu[0].appl rxNeighborPackets_41_451 0
scalar SlicingScenario.rsu[0].appl meanDelay_41_451 0
scalar SlicingScenario.rsu[0].appl meanJitter_41_451 0
scalar SlicingScenario.rsu[0].appl meanRxPacketSize_41_451 0
scalar SlicingScenario.rsu[0].appl meanTxPacketSize_41_451 1510
scalar SlicingScenario.rsu[0].appl meanRxThroughput_41_451 0
scalar SlicingScenario.rsu[0].appl meanTxThroughput_41_451 30234.396355353
scalar SlicingScenario.rsu[0].appl rxTimeOfService_41_451 0
scalar SlicingScenario.rsu[0].appl txTimeOfService_41_451 351.2
scalar SlicingScenario.rsu[0].appl txPackets_41_457 875
scalar SlicingScenario.rsu[0].appl rxPackets_41_457 0
scalar SlicingScenario.rsu[0].appl rxNeighborPackets_41_457 0
scalar SlicingScenario.rsu[0].appl meanDelay_41_457 0
scalar SlicingScenario.rsu[0].appl meanJitter_41_457 0
scalar SlicingScenario.rsu[0].appl meanRxPacketSize_41_457 0
scalar SlicingScenario.rsu[0].appl meanTxPacketSize_41_457 1510
scalar SlicingScenario.rsu[0].appl meanRxThroughput_41_457 0
scalar SlicingScenario.rsu[0].appl meanTxThroughput_41_457 30234.553775744
scalar SlicingScenario.rsu[0].appl rxTimeOfService_41_457 0
scalar SlicingScenario.rsu[0].appl txTimeOfService_41_457 349.6
scalar SlicingScenario.rsu[0].appl txPackets_41_469 863
scalar SlicingScenario.rsu[0].appl rxPackets_41_469 0
scalar SlicingScenario.rsu[0].appl rxNeighborPackets_41_469 0
scalar SlicingScenario.rsu[0].appl meanDelay_41_469 0
scalar SlicingScenario.rsu[0].appl meanJitter_41_469 0
scalar SlicingScenario.rsu[0].appl meanRxPacketSize_41_469 0
scalar SlicingScenario.rsu[0].appl meanTxPacketSize_41_469 1510
scalar SlicingScenario.rsu[0].appl meanRxThroughput_41_469 0
scalar SlicingScenario.rsu[0].appl meanTxThroughput_41_469 30235.034802784
scalar SlicingScenario.rsu[0].appl rxTimeOfService_41_469 0
scalar SlicingScenario.rsu[0].appl txTimeOfService_41_469 344.8
scalar SlicingScenario.rsu[0].appl txPackets_41_481 849
scalar SlicingScenario.rsu[0].appl rxPackets_41_481 0
scalar SlicingScenario.rsu[0].appl rxNeighborPackets_41_481 0
scalar SlicingScenario.rsu[0].appl meanDelay_41_481 0
scalar SlicingScenario.rsu[0].appl meanJitter_41_481 0
scalar SlicingScenario.rsu[0].appl meanRxPacketSize_41_481 0
scalar SlicingScenario.rsu[0].appl meanTxPacketSize_41_481 1510
scalar SlicingScenario.rsu[0].appl meanRxThroughput_41_481 0
scalar SlicingScenario.rsu[0].appl meanTxThroughput_41_481 30235.613207547
scalar SlicingScenario.rsu[0].appl rxTimeOfService_41_481 0
scalar SlicingScenario.rsu[0].appl txTimeOfService_41_481 339.2
scalar SlicingScenario.rsu[0].appl txPackets_41_487 850
scalar SlicingScenario.rsu[0].appl rxPackets_41_487 0
scalar SlicingScenario.rsu[0].appl rxNeighborPackets_41_487 0
scalar SlicingScenario.rsu[0].appl meanDelay_41_487 0
scalar SlicingScenario.rsu[0].appl meanJitter_41_487 0
scalar SlicingScenario.rsu[0].appl meanRxPacketSize_41_487 0
scalar SlicingScenario.rsu[0].appl meanTxPacketSize_41_487 1510
scalar SlicingScenario.rsu[0].appl meanRxThroughput_41_487 0
scalar SlicingScenario.rsu[0].appl meanTxThroughput_41_487 30235.571260306
scalar SlicingScenario.rsu[0].appl rxTimeOfService_41_487 0
scalar SlicingScenario.rsu[0].appl txTimeOfService_41_487 339.6
scalar SlicingScenario.rsu[0].nic.phy80211p busyTime 0
scalar SlicingScenario.rsu[0].nic.phy80211p ncollisions 0
scalar SlicingScenario.rsu[0].nic.phy80211p UnderSensitivityPackets 0
scalar SlicingScenario.rsu[0].nic.mac1609_4 ReceivedUnicastPackets_CCH 0
scalar SlicingScenario.rsu[0].nic.mac1609_4 ReceivedBroadcasts_CCH 0
scalar SlicingScenario.rsu[0].nic.mac1609_4 SentPackets_CCH 0
scalar SlicingScenario.rsu[0].nic.mac1609_4 SentAcknowledgements_CCH 0
scalar SlicingScenario.rsu[0].nic.mac1609_4 SNIRLostPackets_CCH 0
scalar SlicingScenario.rsu[0].nic.mac1609_4 RXTXLostPackets_CCH 0
scalar SlicingScenario.rsu[0].nic.mac1609_4 TotalLostPackets_CCH 0
scalar SlicingScenario.rsu[0].nic.mac1609_4 DroppedPacketsInMac_CCH 0
scalar SlicingScenario.rsu[0].nic.mac1609_4 TooLittleTime_CCH 0
scalar SlicingScenario.rsu[0].nic.mac1609_4 TimesIntoBackoff_CCH 0
scalar SlicingScenario.rsu[0].nic.mac1609_4 SlotsBackoff_CCH 0
scalar SlicingScenario.rsu[0].nic.mac1609_4 NumInternalContention_CCH 0
scalar SlicingScenario.rsu[0].nic.mac1609_4 RemainingPacketsInEDCA_CCH 0
scalar SlicingScenario.rsu[0].nic.mac1609_4 totalBusyTime_CCH 0
scalar SlicingScenario.rsu[0].nic.mac1609_4 ReceivedUnicastPackets_SCH 0
scalar SlicingScenario.rsu[0].nic.mac1609_4 ReceivedBroadcasts_SCH 0
scalar SlicingScenario.rsu[0].nic.mac1609_4 SentPackets_SCH 83715
scalar SlicingScenario.rsu[0].nic.mac1609_4 SentAcknowledgements_SCH 0
scalar SlicingScenario.rsu[0].nic.mac1609_4 SNIRLostPackets_SCH 0
scalar SlicingScenario.rsu[0].nic.mac1609_4 RXTXLostPackets_SCH 0
scalar SlicingScenario.rsu[0].nic.mac1609_4 TotalLostPackets_SCH 0
scalar SlicingScenario.rsu[0].nic.mac1609_4 DroppedPacketsInMac_SCH 0
scalar SlicingScenario.rsu[0].nic.mac1609_4 TooLittleTime_SCH 25000
scalar SlicingScenario.rsu[0].nic.mac1609_4 TimesIntoBackoff_SCH 88105
scalar SlicingScenario.rsu[0].nic.mac1609_4 SlotsBackoff_SCH 292752
scalar SlicingScenario.rsu[0].nic.mac1609_4 NumInternalContention_SCH 0
scalar SlicingScenario.rsu[0].nic.mac1609_4 RemainingPacketsInEDCA_SCH 1
scalar SlicingScenario.rsu[0].nic.mac1609_4 totalBusyTime_SCH 172.871475

