version 2
run General-248-20190223-14:34:13-12260
attr configname General
attr datetime 20190223-14:34:13
attr experiment General
attr inifile omnetpp.ini
attr iterationvars "$vehicles=40, $msgSizeA=1500B, $serviceMsgInterval=0.4s"
attr iterationvarsf vehicles=40,msgSizeA=1500B,serviceMsgInterval=0.4s-
attr measurement "$vehicles=40, $msgSizeA=1500B, $serviceMsgInterval=0.4s"
attr network com.liborio.slicing.SlicingScenario
attr processid 12260
attr repetition 8
attr replication #8
attr resultdir results
attr runnumber 248
attr seedset 8
itervar msgSizeA 1500B
itervar serviceMsgInterval 0.4s
itervar vehicles 40
param **.debug false
param **.coreDebug false
param *.playgroundSizeX 1200m
param *.playgroundSizeY 1200m
param *.playgroundSizeZ 50m
param *.annotations.draw true
param *.manager.updateInterval 1s
param *.manager.host "\"localhost\""
param *.manager.port 9999
param *.manager.autoShutdown true
param *.manager.launchConfig "xmldoc(\"highway-\"+string(40)+\".launchd.xml\")"
param *.connectionManager.sendDirect true
param *.connectionManager.maxInterfDist 2600m
param *.connectionManager.drawMaxIntfDist false
param *.rsu[*].applType "\"RSUApp\""
param *.rsu[*].appl.headerLength "80 bit"
param *.rsu[*].appl.sendBeacons false
param *.rsu[*].appl.dataOnSch true
param *.rsu[*].appl.beaconInterval 1s
param *.rsu[*].appl.beaconUserPriority 7
param *.rsu[*].appl.dataUserPriority 5
param *.rsu[*].appl.entMsgADataLengthBytes 1500B
param *.rsu[*].appl.entMsgAUserPriority 4
param *.rsu[*].appl.entMsgAInterval 0.4s
param *.rsu[*].appl.entMsgBDataLengthBytes 1500B
param *.rsu[*].appl.entMsgBUserPriority 4
param *.rsu[*].appl.entMsgBInterval 0.4s
param *.rsu[*].nic.mac1609_4.useServiceChannel true
param *.rsu[*].nic.mac1609_4.txPower 20mW
param *.rsu[*].nic.mac1609_4.bitrate 6Mbps
param *.rsu[*].nic.phy80211p.sensitivity -90.00dBm
param *.rsu[0].mobility.x 515.0
param *.rsu[0].mobility.y 25.0
param *.rsu[0].mobility.z 3
param *.node[*].applType "\"VehApp\""
param *.node[*].appl.headerLength "80 bit"
param *.node[*].appl.sendBeacons false
param *.node[*].appl.dataOnSch true
param *.node[*].appl.beaconInterval 1s
param *.node[*].appl.wsaInterval 1s
param *.node[*].appl.entMsgADataLengthBits 1500B
param *.node[*].appl.entMsgAUserPriority 4
param *.node[*].appl.entMsgAInterval 0.4s
param *.node[*].appl.entMsgBDataLengthBits 1500B
param *.node[*].appl.entMsgBUserPriority 4
param *.node[*].appl.entMsgBInterval 0.4s
param *.node[*].nic.mac1609_4.useServiceChannel true
param *.node[*].nic.mac1609_4.txPower 20mW
param *.node[*].nic.mac1609_4.bitrate 6Mbps
param *.node[*].nic.phy80211p.sensitivity -90.00dBm
param *.node[*].veinsmobilityType.debug true
param *.node[*].veinsmobility.x 0
param *.node[*].veinsmobility.y 0
param *.node[*].veinsmobility.z 1.895
param *.**.nic.phy80211p.useThermalNoise true
param *.**.nic.phy80211p.thermalNoise -110dBm
param *.**.nic.phy80211p.decider "xmldoc(\"config.xml\")"
param *.**.nic.phy80211p.analogueModels "xmldoc(\"config.xml\")"
param *.**.nic.phy80211p.usePropagationDelay true
param *.**.nic.phy80211p.antenna "xmldoc(\"antenna.xml\", \"/root/Antenna[@id='monopole']\")"
param *.**.nic.phy80211p.collectCollisionStatistics true
param *.**.nic.phy80211p.allowTxDuringRx false

scalar SlicingScenario.node[0].appl txPackets_13 0
scalar SlicingScenario.node[0].appl rxPackets_13 0
scalar SlicingScenario.node[0].appl rxNeighborPackets_13 0
scalar SlicingScenario.node[0].appl meanDelay_13 0
scalar SlicingScenario.node[0].appl meanJitter_13 0
scalar SlicingScenario.node[0].appl meanRxPacketSize_13 0
scalar SlicingScenario.node[0].appl meanTxPacketSize_13 0
scalar SlicingScenario.node[0].appl meanRxThroughput_13 0
scalar SlicingScenario.node[0].appl meanTxThroughput_13 0
scalar SlicingScenario.node[0].appl rxTimeOfService_13 0
scalar SlicingScenario.node[0].appl txTimeOfService_13 0
scalar SlicingScenario.node[0].appl txPackets_41_13 0
scalar SlicingScenario.node[0].appl rxPackets_41_13 207
scalar SlicingScenario.node[0].appl rxNeighborPackets_41_13 2651
scalar SlicingScenario.node[0].appl meanDelay_41_13 0.005333993338
scalar SlicingScenario.node[0].appl meanJitter_41_13 6.8393561e-05
scalar SlicingScenario.node[0].appl meanRxPacketSize_41_13 1510
scalar SlicingScenario.node[0].appl meanTxPacketSize_41_13 0
scalar SlicingScenario.node[0].appl meanRxThroughput_41_13 30345.80095017
scalar SlicingScenario.node[0].appl meanTxThroughput_41_13 0
scalar SlicingScenario.node[0].appl rxTimeOfService_41_13 82.402174986455
scalar SlicingScenario.node[0].appl txTimeOfService_41_13 0
scalar SlicingScenario.node[0].nic.phy80211p busyTime 0.10407495652174
scalar SlicingScenario.node[0].nic.phy80211p ncollisions 0
scalar SlicingScenario.node[0].nic.phy80211p UnderSensitivityPackets 508
scalar SlicingScenario.node[0].nic.mac1609_4 ReceivedUnicastPackets_CCH 0
scalar SlicingScenario.node[0].nic.mac1609_4 ReceivedBroadcasts_CCH 0
scalar SlicingScenario.node[0].nic.mac1609_4 SentPackets_CCH 0
scalar SlicingScenario.node[0].nic.mac1609_4 SentAcknowledgements_CCH 0
scalar SlicingScenario.node[0].nic.mac1609_4 SNIRLostPackets_CCH 0
scalar SlicingScenario.node[0].nic.mac1609_4 RXTXLostPackets_CCH 0
scalar SlicingScenario.node[0].nic.mac1609_4 TotalLostPackets_CCH 0
scalar SlicingScenario.node[0].nic.mac1609_4 DroppedPacketsInMac_CCH 0
scalar SlicingScenario.node[0].nic.mac1609_4 TooLittleTime_CCH 0
scalar SlicingScenario.node[0].nic.mac1609_4 TimesIntoBackoff_CCH 0
scalar SlicingScenario.node[0].nic.mac1609_4 SlotsBackoff_CCH 0
scalar SlicingScenario.node[0].nic.mac1609_4 NumInternalContention_CCH 0
scalar SlicingScenario.node[0].nic.mac1609_4 RemainingPacketsInEDCA_CCH 0
scalar SlicingScenario.node[0].nic.mac1609_4 totalBusyTime_CCH 0
scalar SlicingScenario.node[0].nic.mac1609_4 ReceivedUnicastPackets_SCH 0
scalar SlicingScenario.node[0].nic.mac1609_4 ReceivedBroadcasts_SCH 4639
scalar SlicingScenario.node[0].nic.mac1609_4 SentPackets_SCH 0
scalar SlicingScenario.node[0].nic.mac1609_4 SentAcknowledgements_SCH 0
scalar SlicingScenario.node[0].nic.mac1609_4 SNIRLostPackets_SCH 0
scalar SlicingScenario.node[0].nic.mac1609_4 RXTXLostPackets_SCH 0
scalar SlicingScenario.node[0].nic.mac1609_4 TotalLostPackets_SCH 0
scalar SlicingScenario.node[0].nic.mac1609_4 DroppedPacketsInMac_SCH 0
scalar SlicingScenario.node[0].nic.mac1609_4 TooLittleTime_SCH 0
scalar SlicingScenario.node[0].nic.mac1609_4 TimesIntoBackoff_SCH 0
scalar SlicingScenario.node[0].nic.mac1609_4 SlotsBackoff_SCH 0
scalar SlicingScenario.node[0].nic.mac1609_4 NumInternalContention_SCH 0
scalar SlicingScenario.node[0].nic.mac1609_4 RemainingPacketsInEDCA_SCH 0
scalar SlicingScenario.node[0].nic.mac1609_4 totalBusyTime_SCH 9.574896
scalar SlicingScenario.node[0].veinsmobility startTime 1
scalar SlicingScenario.node[0].veinsmobility totalTime 91
scalar SlicingScenario.node[0].veinsmobility stopTime 93
scalar SlicingScenario.node[0].veinsmobility minSpeed 10.610900360988
scalar SlicingScenario.node[0].veinsmobility maxSpeed 11.103873771396
scalar SlicingScenario.node[0].veinsmobility totalDistance 980.49788644573
scalar SlicingScenario.node[0].veinsmobility totalCO2Emission 160.16656620949
scalar SlicingScenario.node[1].appl txPackets_19 0
scalar SlicingScenario.node[1].appl rxPackets_19 0
scalar SlicingScenario.node[1].appl rxNeighborPackets_19 0
scalar SlicingScenario.node[1].appl meanDelay_19 0
scalar SlicingScenario.node[1].appl meanJitter_19 0
scalar SlicingScenario.node[1].appl meanRxPacketSize_19 0
scalar SlicingScenario.node[1].appl meanTxPacketSize_19 0
scalar SlicingScenario.node[1].appl meanRxThroughput_19 0
scalar SlicingScenario.node[1].appl meanTxThroughput_19 0
scalar SlicingScenario.node[1].appl rxTimeOfService_19 0
scalar SlicingScenario.node[1].appl txTimeOfService_19 0
scalar SlicingScenario.node[1].appl txPackets_41_19 0
scalar SlicingScenario.node[1].appl rxPackets_41_19 207
scalar SlicingScenario.node[1].appl rxNeighborPackets_41_19 2699
scalar SlicingScenario.node[1].appl meanDelay_41_19 0.004916765496
scalar SlicingScenario.node[1].appl meanJitter_41_19 5.7792179e-05
scalar SlicingScenario.node[1].appl meanRxPacketSize_41_19 1510
scalar SlicingScenario.node[1].appl meanTxPacketSize_41_19 0
scalar SlicingScenario.node[1].appl meanRxThroughput_41_19 30346.582799658
scalar SlicingScenario.node[1].appl meanTxThroughput_41_19 0
scalar SlicingScenario.node[1].appl rxTimeOfService_41_19 82.400051976467
scalar SlicingScenario.node[1].appl txTimeOfService_41_19 0
scalar SlicingScenario.node[1].nic.phy80211p busyTime 0.10620626086957
scalar SlicingScenario.node[1].nic.phy80211p ncollisions 0
scalar SlicingScenario.node[1].nic.phy80211p UnderSensitivityPackets 513
scalar SlicingScenario.node[1].nic.mac1609_4 ReceivedUnicastPackets_CCH 0
scalar SlicingScenario.node[1].nic.mac1609_4 ReceivedBroadcasts_CCH 0
scalar SlicingScenario.node[1].nic.mac1609_4 SentPackets_CCH 0
scalar SlicingScenario.node[1].nic.mac1609_4 SentAcknowledgements_CCH 0
scalar SlicingScenario.node[1].nic.mac1609_4 SNIRLostPackets_CCH 0
scalar SlicingScenario.node[1].nic.mac1609_4 RXTXLostPackets_CCH 0
scalar SlicingScenario.node[1].nic.mac1609_4 TotalLostPackets_CCH 0
scalar SlicingScenario.node[1].nic.mac1609_4 DroppedPacketsInMac_CCH 0
scalar SlicingScenario.node[1].nic.mac1609_4 TooLittleTime_CCH 0
scalar SlicingScenario.node[1].nic.mac1609_4 TimesIntoBackoff_CCH 0
scalar SlicingScenario.node[1].nic.mac1609_4 SlotsBackoff_CCH 0
scalar SlicingScenario.node[1].nic.mac1609_4 NumInternalContention_CCH 0
scalar SlicingScenario.node[1].nic.mac1609_4 RemainingPacketsInEDCA_CCH 0
scalar SlicingScenario.node[1].nic.mac1609_4 totalBusyTime_CCH 0
scalar SlicingScenario.node[1].nic.mac1609_4 ReceivedUnicastPackets_SCH 0
scalar SlicingScenario.node[1].nic.mac1609_4 ReceivedBroadcasts_SCH 4734
scalar SlicingScenario.node[1].nic.mac1609_4 SentPackets_SCH 0
scalar SlicingScenario.node[1].nic.mac1609_4 SentAcknowledgements_SCH 0
scalar SlicingScenario.node[1].nic.mac1609_4 SNIRLostPackets_SCH 0
scalar SlicingScenario.node[1].nic.mac1609_4 RXTXLostPackets_SCH 0
scalar SlicingScenario.node[1].nic.mac1609_4 TotalLostPackets_SCH 0
scalar SlicingScenario.node[1].nic.mac1609_4 DroppedPacketsInMac_SCH 0
scalar SlicingScenario.node[1].nic.mac1609_4 TooLittleTime_SCH 0
scalar SlicingScenario.node[1].nic.mac1609_4 TimesIntoBackoff_SCH 0
scalar SlicingScenario.node[1].nic.mac1609_4 SlotsBackoff_SCH 0
scalar SlicingScenario.node[1].nic.mac1609_4 NumInternalContention_SCH 0
scalar SlicingScenario.node[1].nic.mac1609_4 RemainingPacketsInEDCA_SCH 0
scalar SlicingScenario.node[1].nic.mac1609_4 totalBusyTime_SCH 9.770976
scalar SlicingScenario.node[1].veinsmobility startTime 2
scalar SlicingScenario.node[1].veinsmobility totalTime 91
scalar SlicingScenario.node[1].veinsmobility stopTime 94
scalar SlicingScenario.node[1].veinsmobility minSpeed 10.620739448597
scalar SlicingScenario.node[1].veinsmobility maxSpeed 11.108739532777
scalar SlicingScenario.node[1].veinsmobility totalDistance 977.4363857995
scalar SlicingScenario.node[1].veinsmobility totalCO2Emission 159.67802315148
scalar SlicingScenario.node[2].appl txPackets_25 0
scalar SlicingScenario.node[2].appl rxPackets_25 0
scalar SlicingScenario.node[2].appl rxNeighborPackets_25 0
scalar SlicingScenario.node[2].appl meanDelay_25 0
scalar SlicingScenario.node[2].appl meanJitter_25 0
scalar SlicingScenario.node[2].appl meanRxPacketSize_25 0
scalar SlicingScenario.node[2].appl meanTxPacketSize_25 0
scalar SlicingScenario.node[2].appl meanRxThroughput_25 0
scalar SlicingScenario.node[2].appl meanTxThroughput_25 0
scalar SlicingScenario.node[2].appl rxTimeOfService_25 0
scalar SlicingScenario.node[2].appl txTimeOfService_25 0
scalar SlicingScenario.node[2].appl txPackets_41_25 0
scalar SlicingScenario.node[2].appl rxPackets_41_25 207
scalar SlicingScenario.node[2].appl rxNeighborPackets_41_25 2789
scalar SlicingScenario.node[2].appl meanDelay_41_25 0.002074158533
scalar SlicingScenario.node[2].appl meanJitter_41_25 1.026729e-05
scalar SlicingScenario.node[2].appl meanRxPacketSize_41_25 1510
scalar SlicingScenario.node[2].appl meanTxPacketSize_41_25 0
scalar SlicingScenario.node[2].appl meanRxThroughput_41_25 30346.601204352
scalar SlicingScenario.node[2].appl meanTxThroughput_41_25 0
scalar SlicingScenario.node[2].appl rxTimeOfService_41_25 82.400002002248
scalar SlicingScenario.node[2].appl txTimeOfService_41_25 0
scalar SlicingScenario.node[2].nic.phy80211p busyTime 0.10917006451613
scalar SlicingScenario.node[2].nic.phy80211p ncollisions 0
scalar SlicingScenario.node[2].nic.phy80211p UnderSensitivityPackets 526
scalar SlicingScenario.node[2].nic.mac1609_4 ReceivedUnicastPackets_CCH 0
scalar SlicingScenario.node[2].nic.mac1609_4 ReceivedBroadcasts_CCH 0
scalar SlicingScenario.node[2].nic.mac1609_4 SentPackets_CCH 0
scalar SlicingScenario.node[2].nic.mac1609_4 SentAcknowledgements_CCH 0
scalar SlicingScenario.node[2].nic.mac1609_4 SNIRLostPackets_CCH 0
scalar SlicingScenario.node[2].nic.mac1609_4 RXTXLostPackets_CCH 0
scalar SlicingScenario.node[2].nic.mac1609_4 TotalLostPackets_CCH 0
scalar SlicingScenario.node[2].nic.mac1609_4 DroppedPacketsInMac_CCH 0
scalar SlicingScenario.node[2].nic.mac1609_4 TooLittleTime_CCH 0
scalar SlicingScenario.node[2].nic.mac1609_4 TimesIntoBackoff_CCH 0
scalar SlicingScenario.node[2].nic.mac1609_4 SlotsBackoff_CCH 0
scalar SlicingScenario.node[2].nic.mac1609_4 NumInternalContention_CCH 0
scalar SlicingScenario.node[2].nic.mac1609_4 RemainingPacketsInEDCA_CCH 0
scalar SlicingScenario.node[2].nic.mac1609_4 totalBusyTime_CCH 0
scalar SlicingScenario.node[2].nic.mac1609_4 ReceivedUnicastPackets_SCH 0
scalar SlicingScenario.node[2].nic.mac1609_4 ReceivedBroadcasts_SCH 4919
scalar SlicingScenario.node[2].nic.mac1609_4 SentPackets_SCH 0
scalar SlicingScenario.node[2].nic.mac1609_4 SentAcknowledgements_SCH 0
scalar SlicingScenario.node[2].nic.mac1609_4 SNIRLostPackets_SCH 0
scalar SlicingScenario.node[2].nic.mac1609_4 RXTXLostPackets_SCH 0
scalar SlicingScenario.node[2].nic.mac1609_4 TotalLostPackets_SCH 0
scalar SlicingScenario.node[2].nic.mac1609_4 DroppedPacketsInMac_SCH 0
scalar SlicingScenario.node[2].nic.mac1609_4 TooLittleTime_SCH 0
scalar SlicingScenario.node[2].nic.mac1609_4 TimesIntoBackoff_SCH 0
scalar SlicingScenario.node[2].nic.mac1609_4 SlotsBackoff_SCH 0
scalar SlicingScenario.node[2].nic.mac1609_4 NumInternalContention_SCH 0
scalar SlicingScenario.node[2].nic.mac1609_4 RemainingPacketsInEDCA_SCH 0
scalar SlicingScenario.node[2].nic.mac1609_4 totalBusyTime_SCH 10.152816
scalar SlicingScenario.node[2].veinsmobility startTime 3
scalar SlicingScenario.node[2].veinsmobility totalTime 92
scalar SlicingScenario.node[2].veinsmobility stopTime 96
scalar SlicingScenario.node[2].veinsmobility minSpeed 7.9020013930723
scalar SlicingScenario.node[2].veinsmobility maxSpeed 11.105965442504
scalar SlicingScenario.node[2].veinsmobility totalDistance 980.43634510891
scalar SlicingScenario.node[2].veinsmobility totalCO2Emission 167.07579743131
scalar SlicingScenario.node[3].appl txPackets_31 0
scalar SlicingScenario.node[3].appl rxPackets_31 0
scalar SlicingScenario.node[3].appl rxNeighborPackets_31 0
scalar SlicingScenario.node[3].appl meanDelay_31 0
scalar SlicingScenario.node[3].appl meanJitter_31 0
scalar SlicingScenario.node[3].appl meanRxPacketSize_31 0
scalar SlicingScenario.node[3].appl meanTxPacketSize_31 0
scalar SlicingScenario.node[3].appl meanRxThroughput_31 0
scalar SlicingScenario.node[3].appl meanTxThroughput_31 0
scalar SlicingScenario.node[3].appl rxTimeOfService_31 0
scalar SlicingScenario.node[3].appl txTimeOfService_31 0
scalar SlicingScenario.node[3].appl txPackets_40_31 0
scalar SlicingScenario.node[3].appl rxPackets_40_31 207
scalar SlicingScenario.node[3].appl rxNeighborPackets_40_31 1716
scalar SlicingScenario.node[3].appl meanDelay_40_31 0.002285990356
scalar SlicingScenario.node[3].appl meanJitter_40_31 2.1784862e-05
scalar SlicingScenario.node[3].appl meanRxPacketSize_40_31 1510
scalar SlicingScenario.node[3].appl meanTxPacketSize_40_31 0
scalar SlicingScenario.node[3].appl meanRxThroughput_40_31 30346.194263403
scalar SlicingScenario.node[3].appl meanTxThroughput_40_31 0
scalar SlicingScenario.node[3].appl rxTimeOfService_40_31 82.401106982157
scalar SlicingScenario.node[3].appl txTimeOfService_40_31 0
scalar SlicingScenario.node[3].nic.phy80211p busyTime 0.11035669565218
scalar SlicingScenario.node[3].nic.phy80211p ncollisions 0
scalar SlicingScenario.node[3].nic.phy80211p UnderSensitivityPackets 524
scalar SlicingScenario.node[3].nic.mac1609_4 ReceivedUnicastPackets_CCH 0
scalar SlicingScenario.node[3].nic.mac1609_4 ReceivedBroadcasts_CCH 0
scalar SlicingScenario.node[3].nic.mac1609_4 SentPackets_CCH 0
scalar SlicingScenario.node[3].nic.mac1609_4 SentAcknowledgements_CCH 0
scalar SlicingScenario.node[3].nic.mac1609_4 SNIRLostPackets_CCH 0
scalar SlicingScenario.node[3].nic.mac1609_4 RXTXLostPackets_CCH 0
scalar SlicingScenario.node[3].nic.mac1609_4 TotalLostPackets_CCH 0
scalar SlicingScenario.node[3].nic.mac1609_4 DroppedPacketsInMac_CCH 0
scalar SlicingScenario.node[3].nic.mac1609_4 TooLittleTime_CCH 0
scalar SlicingScenario.node[3].nic.mac1609_4 TimesIntoBackoff_CCH 0
scalar SlicingScenario.node[3].nic.mac1609_4 SlotsBackoff_CCH 0
scalar SlicingScenario.node[3].nic.mac1609_4 NumInternalContention_CCH 0
scalar SlicingScenario.node[3].nic.mac1609_4 RemainingPacketsInEDCA_CCH 0
scalar SlicingScenario.node[3].nic.mac1609_4 totalBusyTime_CCH 0
scalar SlicingScenario.node[3].nic.mac1609_4 ReceivedUnicastPackets_SCH 0
scalar SlicingScenario.node[3].nic.mac1609_4 ReceivedBroadcasts_SCH 4919
scalar SlicingScenario.node[3].nic.mac1609_4 SentPackets_SCH 0
scalar SlicingScenario.node[3].nic.mac1609_4 SentAcknowledgements_SCH 0
scalar SlicingScenario.node[3].nic.mac1609_4 SNIRLostPackets_SCH 0
scalar SlicingScenario.node[3].nic.mac1609_4 RXTXLostPackets_SCH 0
scalar SlicingScenario.node[3].nic.mac1609_4 TotalLostPackets_SCH 0
scalar SlicingScenario.node[3].nic.mac1609_4 DroppedPacketsInMac_SCH 0
scalar SlicingScenario.node[3].nic.mac1609_4 TooLittleTime_SCH 0
scalar SlicingScenario.node[3].nic.mac1609_4 TimesIntoBackoff_SCH 0
scalar SlicingScenario.node[3].nic.mac1609_4 SlotsBackoff_SCH 0
scalar SlicingScenario.node[3].nic.mac1609_4 NumInternalContention_SCH 0
scalar SlicingScenario.node[3].nic.mac1609_4 RemainingPacketsInEDCA_SCH 0
scalar SlicingScenario.node[3].nic.mac1609_4 totalBusyTime_SCH 10.152816
scalar SlicingScenario.node[3].veinsmobility startTime 4
scalar SlicingScenario.node[3].veinsmobility totalTime 91
scalar SlicingScenario.node[3].veinsmobility stopTime 96
scalar SlicingScenario.node[3].veinsmobility minSpeed 10.611961531583
scalar SlicingScenario.node[3].veinsmobility maxSpeed 11.109603896751
scalar SlicingScenario.node[3].veinsmobility totalDistance 977.94414025594
scalar SlicingScenario.node[3].veinsmobility totalCO2Emission 158.81589072246
scalar SlicingScenario.node[4].appl txPackets_37 0
scalar SlicingScenario.node[4].appl rxPackets_37 0
scalar SlicingScenario.node[4].appl rxNeighborPackets_37 0
scalar SlicingScenario.node[4].appl meanDelay_37 0
scalar SlicingScenario.node[4].appl meanJitter_37 0
scalar SlicingScenario.node[4].appl meanRxPacketSize_37 0
scalar SlicingScenario.node[4].appl meanTxPacketSize_37 0
scalar SlicingScenario.node[4].appl meanRxThroughput_37 0
scalar SlicingScenario.node[4].appl meanTxThroughput_37 0
scalar SlicingScenario.node[4].appl rxTimeOfService_37 0
scalar SlicingScenario.node[4].appl txTimeOfService_37 0
scalar SlicingScenario.node[4].appl txPackets_41_37 0
scalar SlicingScenario.node[4].appl rxPackets_41_37 203
scalar SlicingScenario.node[4].appl rxNeighborPackets_41_37 2838
scalar SlicingScenario.node[4].appl meanDelay_41_37 0.002076069573
scalar SlicingScenario.node[4].appl meanJitter_41_37 1.0307888e-05
scalar SlicingScenario.node[4].appl meanRxPacketSize_41_37 1510
scalar SlicingScenario.node[4].appl meanTxPacketSize_41_37 0
scalar SlicingScenario.node[4].appl meanRxThroughput_41_37 30349.501938361
scalar SlicingScenario.node[4].appl meanTxThroughput_41_37 0
scalar SlicingScenario.node[4].appl rxTimeOfService_41_37 80.800008019255
scalar SlicingScenario.node[4].appl txTimeOfService_41_37 0
scalar SlicingScenario.node[4].nic.phy80211p busyTime 0.11239826086957
scalar SlicingScenario.node[4].nic.phy80211p ncollisions 0
scalar SlicingScenario.node[4].nic.phy80211p UnderSensitivityPackets 529
scalar SlicingScenario.node[4].nic.mac1609_4 ReceivedUnicastPackets_CCH 0
scalar SlicingScenario.node[4].nic.mac1609_4 ReceivedBroadcasts_CCH 0
scalar SlicingScenario.node[4].nic.mac1609_4 SentPackets_CCH 0
scalar SlicingScenario.node[4].nic.mac1609_4 SentAcknowledgements_CCH 0
scalar SlicingScenario.node[4].nic.mac1609_4 SNIRLostPackets_CCH 0
scalar SlicingScenario.node[4].nic.mac1609_4 RXTXLostPackets_CCH 0
scalar SlicingScenario.node[4].nic.mac1609_4 TotalLostPackets_CCH 0
scalar SlicingScenario.node[4].nic.mac1609_4 DroppedPacketsInMac_CCH 0
scalar SlicingScenario.node[4].nic.mac1609_4 TooLittleTime_CCH 0
scalar SlicingScenario.node[4].nic.mac1609_4 TimesIntoBackoff_CCH 0
scalar SlicingScenario.node[4].nic.mac1609_4 SlotsBackoff_CCH 0
scalar SlicingScenario.node[4].nic.mac1609_4 NumInternalContention_CCH 0
scalar SlicingScenario.node[4].nic.mac1609_4 RemainingPacketsInEDCA_CCH 0
scalar SlicingScenario.node[4].nic.mac1609_4 totalBusyTime_CCH 0
scalar SlicingScenario.node[4].nic.mac1609_4 ReceivedUnicastPackets_SCH 0
scalar SlicingScenario.node[4].nic.mac1609_4 ReceivedBroadcasts_SCH 5010
scalar SlicingScenario.node[4].nic.mac1609_4 SentPackets_SCH 0
scalar SlicingScenario.node[4].nic.mac1609_4 SentAcknowledgements_SCH 0
scalar SlicingScenario.node[4].nic.mac1609_4 SNIRLostPackets_SCH 0
scalar SlicingScenario.node[4].nic.mac1609_4 RXTXLostPackets_SCH 0
scalar SlicingScenario.node[4].nic.mac1609_4 TotalLostPackets_SCH 0
scalar SlicingScenario.node[4].nic.mac1609_4 DroppedPacketsInMac_SCH 0
scalar SlicingScenario.node[4].nic.mac1609_4 TooLittleTime_SCH 0
scalar SlicingScenario.node[4].nic.mac1609_4 TimesIntoBackoff_SCH 0
scalar SlicingScenario.node[4].nic.mac1609_4 SlotsBackoff_SCH 0
scalar SlicingScenario.node[4].nic.mac1609_4 NumInternalContention_SCH 0
scalar SlicingScenario.node[4].nic.mac1609_4 RemainingPacketsInEDCA_SCH 0
scalar SlicingScenario.node[4].nic.mac1609_4 totalBusyTime_SCH 10.34064
scalar SlicingScenario.node[4].veinsmobility startTime 5
scalar SlicingScenario.node[4].veinsmobility totalTime 91
scalar SlicingScenario.node[4].veinsmobility stopTime 97
scalar SlicingScenario.node[4].veinsmobility minSpeed 10.610228290563
scalar SlicingScenario.node[4].veinsmobility maxSpeed 11.10767574796
scalar SlicingScenario.node[4].veinsmobility totalDistance 978.16713220662
scalar SlicingScenario.node[4].veinsmobility totalCO2Emission 157.88044169776
scalar SlicingScenario.node[5].appl txPackets_43 0
scalar SlicingScenario.node[5].appl rxPackets_43 0
scalar SlicingScenario.node[5].appl rxNeighborPackets_43 0
scalar SlicingScenario.node[5].appl meanDelay_43 0
scalar SlicingScenario.node[5].appl meanJitter_43 0
scalar SlicingScenario.node[5].appl meanRxPacketSize_43 0
scalar SlicingScenario.node[5].appl meanTxPacketSize_43 0
scalar SlicingScenario.node[5].appl meanRxThroughput_43 0
scalar SlicingScenario.node[5].appl meanTxThroughput_43 0
scalar SlicingScenario.node[5].appl rxTimeOfService_43 0
scalar SlicingScenario.node[5].appl txTimeOfService_43 0
scalar SlicingScenario.node[5].appl txPackets_41_43 0
scalar SlicingScenario.node[5].appl rxPackets_41_43 205
scalar SlicingScenario.node[5].appl rxNeighborPackets_41_43 2925
scalar SlicingScenario.node[5].appl meanDelay_41_43 0.002067425708
scalar SlicingScenario.node[5].appl meanJitter_41_43 1.0251765e-05
scalar SlicingScenario.node[5].appl meanRxPacketSize_41_43 1510
scalar SlicingScenario.node[5].appl meanTxPacketSize_41_43 0
scalar SlicingScenario.node[5].appl meanRxThroughput_41_43 30348.041059045
scalar SlicingScenario.node[5].appl meanTxThroughput_41_43 0
scalar SlicingScenario.node[5].appl rxTimeOfService_41_43 81.599995043567
scalar SlicingScenario.node[5].appl txTimeOfService_41_43 0
scalar SlicingScenario.node[5].nic.phy80211p busyTime 0.11516232258065
scalar SlicingScenario.node[5].nic.phy80211p ncollisions 0
scalar SlicingScenario.node[5].nic.phy80211p UnderSensitivityPackets 545
scalar SlicingScenario.node[5].nic.mac1609_4 ReceivedUnicastPackets_CCH 0
scalar SlicingScenario.node[5].nic.mac1609_4 ReceivedBroadcasts_CCH 0
scalar SlicingScenario.node[5].nic.mac1609_4 SentPackets_CCH 0
scalar SlicingScenario.node[5].nic.mac1609_4 SentAcknowledgements_CCH 0
scalar SlicingScenario.node[5].nic.mac1609_4 SNIRLostPackets_CCH 0
scalar SlicingScenario.node[5].nic.mac1609_4 RXTXLostPackets_CCH 0
scalar SlicingScenario.node[5].nic.mac1609_4 TotalLostPackets_CCH 0
scalar SlicingScenario.node[5].nic.mac1609_4 DroppedPacketsInMac_CCH 0
scalar SlicingScenario.node[5].nic.mac1609_4 TooLittleTime_CCH 0
scalar SlicingScenario.node[5].nic.mac1609_4 TimesIntoBackoff_CCH 0
scalar SlicingScenario.node[5].nic.mac1609_4 SlotsBackoff_CCH 0
scalar SlicingScenario.node[5].nic.mac1609_4 NumInternalContention_CCH 0
scalar SlicingScenario.node[5].nic.mac1609_4 RemainingPacketsInEDCA_CCH 0
scalar SlicingScenario.node[5].nic.mac1609_4 totalBusyTime_CCH 0
scalar SlicingScenario.node[5].nic.mac1609_4 ReceivedUnicastPackets_SCH 0
scalar SlicingScenario.node[5].nic.mac1609_4 ReceivedBroadcasts_SCH 5189
scalar SlicingScenario.node[5].nic.mac1609_4 SentPackets_SCH 0
scalar SlicingScenario.node[5].nic.mac1609_4 SentAcknowledgements_SCH 0
scalar SlicingScenario.node[5].nic.mac1609_4 SNIRLostPackets_SCH 0
scalar SlicingScenario.node[5].nic.mac1609_4 RXTXLostPackets_SCH 0
scalar SlicingScenario.node[5].nic.mac1609_4 TotalLostPackets_SCH 0
scalar SlicingScenario.node[5].nic.mac1609_4 DroppedPacketsInMac_SCH 0
scalar SlicingScenario.node[5].nic.mac1609_4 TooLittleTime_SCH 0
scalar SlicingScenario.node[5].nic.mac1609_4 TimesIntoBackoff_SCH 0
scalar SlicingScenario.node[5].nic.mac1609_4 SlotsBackoff_SCH 0
scalar SlicingScenario.node[5].nic.mac1609_4 NumInternalContention_SCH 0
scalar SlicingScenario.node[5].nic.mac1609_4 RemainingPacketsInEDCA_SCH 0
scalar SlicingScenario.node[5].nic.mac1609_4 totalBusyTime_SCH 10.710096
scalar SlicingScenario.node[5].veinsmobility startTime 6
scalar SlicingScenario.node[5].veinsmobility totalTime 92
scalar SlicingScenario.node[5].veinsmobility stopTime 99
scalar SlicingScenario.node[5].veinsmobility minSpeed 8.155251700534
scalar SlicingScenario.node[5].veinsmobility maxSpeed 11.10694524426
scalar SlicingScenario.node[5].veinsmobility totalDistance 982.27002004147
scalar SlicingScenario.node[5].veinsmobility totalCO2Emission 166.39398230837
scalar SlicingScenario.node[6].appl txPackets_49 0
scalar SlicingScenario.node[6].appl rxPackets_49 0
scalar SlicingScenario.node[6].appl rxNeighborPackets_49 0
scalar SlicingScenario.node[6].appl meanDelay_49 0
scalar SlicingScenario.node[6].appl meanJitter_49 0
scalar SlicingScenario.node[6].appl meanRxPacketSize_49 0
scalar SlicingScenario.node[6].appl meanTxPacketSize_49 0
scalar SlicingScenario.node[6].appl meanRxThroughput_49 0
scalar SlicingScenario.node[6].appl meanTxThroughput_49 0
scalar SlicingScenario.node[6].appl rxTimeOfService_49 0
scalar SlicingScenario.node[6].appl txTimeOfService_49 0
scalar SlicingScenario.node[6].appl txPackets_41_49 0
scalar SlicingScenario.node[6].appl rxPackets_41_49 207
scalar SlicingScenario.node[6].appl rxNeighborPackets_41_49 3059
scalar SlicingScenario.node[6].appl meanDelay_41_49 0.002231612984
scalar SlicingScenario.node[6].appl meanJitter_41_49 6.093734e-05
scalar SlicingScenario.node[6].appl meanRxPacketSize_41_49 1510
scalar SlicingScenario.node[6].appl meanTxPacketSize_41_49 0
scalar SlicingScenario.node[6].appl meanRxThroughput_41_49 30346.616292778
scalar SlicingScenario.node[6].appl meanTxThroughput_41_49 0
scalar SlicingScenario.node[6].appl rxTimeOfService_41_49 82.399961032727
scalar SlicingScenario.node[6].appl txTimeOfService_41_49 0
scalar SlicingScenario.node[6].nic.phy80211p busyTime 0.11993157446809
scalar SlicingScenario.node[6].nic.phy80211p ncollisions 0
scalar SlicingScenario.node[6].nic.phy80211p UnderSensitivityPackets 465
scalar SlicingScenario.node[6].nic.mac1609_4 ReceivedUnicastPackets_CCH 0
scalar SlicingScenario.node[6].nic.mac1609_4 ReceivedBroadcasts_CCH 0
scalar SlicingScenario.node[6].nic.mac1609_4 SentPackets_CCH 0
scalar SlicingScenario.node[6].nic.mac1609_4 SentAcknowledgements_CCH 0
scalar SlicingScenario.node[6].nic.mac1609_4 SNIRLostPackets_CCH 0
scalar SlicingScenario.node[6].nic.mac1609_4 RXTXLostPackets_CCH 0
scalar SlicingScenario.node[6].nic.mac1609_4 TotalLostPackets_CCH 0
scalar SlicingScenario.node[6].nic.mac1609_4 DroppedPacketsInMac_CCH 0
scalar SlicingScenario.node[6].nic.mac1609_4 TooLittleTime_CCH 0
scalar SlicingScenario.node[6].nic.mac1609_4 TimesIntoBackoff_CCH 0
scalar SlicingScenario.node[6].nic.mac1609_4 SlotsBackoff_CCH 0
scalar SlicingScenario.node[6].nic.mac1609_4 NumInternalContention_CCH 0
scalar SlicingScenario.node[6].nic.mac1609_4 RemainingPacketsInEDCA_CCH 0
scalar SlicingScenario.node[6].nic.mac1609_4 totalBusyTime_CCH 0
scalar SlicingScenario.node[6].nic.mac1609_4 ReceivedUnicastPackets_SCH 0
scalar SlicingScenario.node[6].nic.mac1609_4 ReceivedBroadcasts_SCH 5462
scalar SlicingScenario.node[6].nic.mac1609_4 SentPackets_SCH 0
scalar SlicingScenario.node[6].nic.mac1609_4 SentAcknowledgements_SCH 0
scalar SlicingScenario.node[6].nic.mac1609_4 SNIRLostPackets_SCH 0
scalar SlicingScenario.node[6].nic.mac1609_4 RXTXLostPackets_SCH 0
scalar SlicingScenario.node[6].nic.mac1609_4 TotalLostPackets_SCH 0
scalar SlicingScenario.node[6].nic.mac1609_4 DroppedPacketsInMac_SCH 0
scalar SlicingScenario.node[6].nic.mac1609_4 TooLittleTime_SCH 0
scalar SlicingScenario.node[6].nic.mac1609_4 TimesIntoBackoff_SCH 0
scalar SlicingScenario.node[6].nic.mac1609_4 SlotsBackoff_SCH 0
scalar SlicingScenario.node[6].nic.mac1609_4 NumInternalContention_SCH 0
scalar SlicingScenario.node[6].nic.mac1609_4 RemainingPacketsInEDCA_SCH 0
scalar SlicingScenario.node[6].nic.mac1609_4 totalBusyTime_SCH 11.273568
scalar SlicingScenario.node[6].veinsmobility startTime 7
scalar SlicingScenario.node[6].veinsmobility totalTime 93
scalar SlicingScenario.node[6].veinsmobility stopTime 101
scalar SlicingScenario.node[6].veinsmobility minSpeed 4.6683170372373
scalar SlicingScenario.node[6].veinsmobility maxSpeed 11.108411437729
scalar SlicingScenario.node[6].veinsmobility totalDistance 975.66685874033
scalar SlicingScenario.node[6].veinsmobility totalCO2Emission 172.50449499795
scalar SlicingScenario.node[7].appl txPackets_55 0
scalar SlicingScenario.node[7].appl rxPackets_55 0
scalar SlicingScenario.node[7].appl rxNeighborPackets_55 0
scalar SlicingScenario.node[7].appl meanDelay_55 0
scalar SlicingScenario.node[7].appl meanJitter_55 0
scalar SlicingScenario.node[7].appl meanRxPacketSize_55 0
scalar SlicingScenario.node[7].appl meanTxPacketSize_55 0
scalar SlicingScenario.node[7].appl meanRxThroughput_55 0
scalar SlicingScenario.node[7].appl meanTxThroughput_55 0
scalar SlicingScenario.node[7].appl rxTimeOfService_55 0
scalar SlicingScenario.node[7].appl txTimeOfService_55 0
scalar SlicingScenario.node[7].appl txPackets_40_55 0
scalar SlicingScenario.node[7].appl rxPackets_40_55 193
scalar SlicingScenario.node[7].appl rxNeighborPackets_40_55 1956
scalar SlicingScenario.node[7].appl meanDelay_40_55 0.002072398694
scalar SlicingScenario.node[7].appl meanJitter_40_55 1.0900973e-05
scalar SlicingScenario.node[7].appl meanRxPacketSize_40_55 1510
scalar SlicingScenario.node[7].appl meanTxPacketSize_40_55 0
scalar SlicingScenario.node[7].appl meanRxThroughput_40_55 30357.293576033
scalar SlicingScenario.node[7].appl meanTxThroughput_40_55 0
scalar SlicingScenario.node[7].appl rxTimeOfService_40_55 76.799995169553
scalar SlicingScenario.node[7].appl txTimeOfService_40_55 0
scalar SlicingScenario.node[7].nic.phy80211p busyTime 0.12029530434783
scalar SlicingScenario.node[7].nic.phy80211p ncollisions 0
scalar SlicingScenario.node[7].nic.phy80211p UnderSensitivityPackets 548
scalar SlicingScenario.node[7].nic.mac1609_4 ReceivedUnicastPackets_CCH 0
scalar SlicingScenario.node[7].nic.mac1609_4 ReceivedBroadcasts_CCH 0
scalar SlicingScenario.node[7].nic.mac1609_4 SentPackets_CCH 0
scalar SlicingScenario.node[7].nic.mac1609_4 SentAcknowledgements_CCH 0
scalar SlicingScenario.node[7].nic.mac1609_4 SNIRLostPackets_CCH 0
scalar SlicingScenario.node[7].nic.mac1609_4 RXTXLostPackets_CCH 0
scalar SlicingScenario.node[7].nic.mac1609_4 TotalLostPackets_CCH 0
scalar SlicingScenario.node[7].nic.mac1609_4 DroppedPacketsInMac_CCH 0
scalar SlicingScenario.node[7].nic.mac1609_4 TooLittleTime_CCH 0
scalar SlicingScenario.node[7].nic.mac1609_4 TimesIntoBackoff_CCH 0
scalar SlicingScenario.node[7].nic.mac1609_4 SlotsBackoff_CCH 0
scalar SlicingScenario.node[7].nic.mac1609_4 NumInternalContention_CCH 0
scalar SlicingScenario.node[7].nic.mac1609_4 RemainingPacketsInEDCA_CCH 0
scalar SlicingScenario.node[7].nic.mac1609_4 totalBusyTime_CCH 0
scalar SlicingScenario.node[7].nic.mac1609_4 ReceivedUnicastPackets_SCH 0
scalar SlicingScenario.node[7].nic.mac1609_4 ReceivedBroadcasts_SCH 5362
scalar SlicingScenario.node[7].nic.mac1609_4 SentPackets_SCH 0
scalar SlicingScenario.node[7].nic.mac1609_4 SentAcknowledgements_SCH 0
scalar SlicingScenario.node[7].nic.mac1609_4 SNIRLostPackets_SCH 0
scalar SlicingScenario.node[7].nic.mac1609_4 RXTXLostPackets_SCH 0
scalar SlicingScenario.node[7].nic.mac1609_4 TotalLostPackets_SCH 0
scalar SlicingScenario.node[7].nic.mac1609_4 DroppedPacketsInMac_SCH 0
scalar SlicingScenario.node[7].nic.mac1609_4 TooLittleTime_SCH 0
scalar SlicingScenario.node[7].nic.mac1609_4 TimesIntoBackoff_SCH 0
scalar SlicingScenario.node[7].nic.mac1609_4 SlotsBackoff_SCH 0
scalar SlicingScenario.node[7].nic.mac1609_4 NumInternalContention_SCH 0
scalar SlicingScenario.node[7].nic.mac1609_4 RemainingPacketsInEDCA_SCH 0
scalar SlicingScenario.node[7].nic.mac1609_4 totalBusyTime_SCH 11.067168
scalar SlicingScenario.node[7].veinsmobility startTime 9
scalar SlicingScenario.node[7].veinsmobility totalTime 91
scalar SlicingScenario.node[7].veinsmobility stopTime 101
scalar SlicingScenario.node[7].veinsmobility minSpeed 10.615243159598
scalar SlicingScenario.node[7].veinsmobility maxSpeed 11.09553624237
scalar SlicingScenario.node[7].veinsmobility totalDistance 980.95867206093
scalar SlicingScenario.node[7].veinsmobility totalCO2Emission 158.70918002596
scalar SlicingScenario.node[9].appl txPackets_67 0
scalar SlicingScenario.node[9].appl rxPackets_67 0
scalar SlicingScenario.node[9].appl rxNeighborPackets_67 0
scalar SlicingScenario.node[9].appl meanDelay_67 0
scalar SlicingScenario.node[9].appl meanJitter_67 0
scalar SlicingScenario.node[9].appl meanRxPacketSize_67 0
scalar SlicingScenario.node[9].appl meanTxPacketSize_67 0
scalar SlicingScenario.node[9].appl meanRxThroughput_67 0
scalar SlicingScenario.node[9].appl meanTxThroughput_67 0
scalar SlicingScenario.node[9].appl rxTimeOfService_67 0
scalar SlicingScenario.node[9].appl txTimeOfService_67 0
scalar SlicingScenario.node[9].appl txPackets_41_67 0
scalar SlicingScenario.node[9].appl rxPackets_41_67 190
scalar SlicingScenario.node[9].appl rxNeighborPackets_41_67 3101
scalar SlicingScenario.node[9].appl meanDelay_41_67 0.002071131211
scalar SlicingScenario.node[9].appl meanJitter_41_67 1.1042564e-05
scalar SlicingScenario.node[9].appl meanRxPacketSize_41_67 1510
scalar SlicingScenario.node[9].appl meanTxPacketSize_41_67 0
scalar SlicingScenario.node[9].appl meanRxThroughput_41_67 30359.791880963
scalar SlicingScenario.node[9].appl meanTxThroughput_41_67 0
scalar SlicingScenario.node[9].appl rxTimeOfService_41_67 75.599991231798
scalar SlicingScenario.node[9].appl txTimeOfService_41_67 0
scalar SlicingScenario.node[9].nic.phy80211p busyTime 0.1240643478261
scalar SlicingScenario.node[9].nic.phy80211p ncollisions 0
scalar SlicingScenario.node[9].nic.phy80211p UnderSensitivityPackets 559
scalar SlicingScenario.node[9].nic.mac1609_4 ReceivedUnicastPackets_CCH 0
scalar SlicingScenario.node[9].nic.mac1609_4 ReceivedBroadcasts_CCH 0
scalar SlicingScenario.node[9].nic.mac1609_4 SentPackets_CCH 0
scalar SlicingScenario.node[9].nic.mac1609_4 SentAcknowledgements_CCH 0
scalar SlicingScenario.node[9].nic.mac1609_4 SNIRLostPackets_CCH 0
scalar SlicingScenario.node[9].nic.mac1609_4 RXTXLostPackets_CCH 0
scalar SlicingScenario.node[9].nic.mac1609_4 TotalLostPackets_CCH 0
scalar SlicingScenario.node[9].nic.mac1609_4 DroppedPacketsInMac_CCH 0
scalar SlicingScenario.node[9].nic.mac1609_4 TooLittleTime_CCH 0
scalar SlicingScenario.node[9].nic.mac1609_4 TimesIntoBackoff_CCH 0
scalar SlicingScenario.node[9].nic.mac1609_4 SlotsBackoff_CCH 0
scalar SlicingScenario.node[9].nic.mac1609_4 NumInternalContention_CCH 0
scalar SlicingScenario.node[9].nic.mac1609_4 RemainingPacketsInEDCA_CCH 0
scalar SlicingScenario.node[9].nic.mac1609_4 totalBusyTime_CCH 0
scalar SlicingScenario.node[9].nic.mac1609_4 ReceivedUnicastPackets_SCH 0
scalar SlicingScenario.node[9].nic.mac1609_4 ReceivedBroadcasts_SCH 5530
scalar SlicingScenario.node[9].nic.mac1609_4 SentPackets_SCH 0
scalar SlicingScenario.node[9].nic.mac1609_4 SentAcknowledgements_SCH 0
scalar SlicingScenario.node[9].nic.mac1609_4 SNIRLostPackets_SCH 0
scalar SlicingScenario.node[9].nic.mac1609_4 RXTXLostPackets_SCH 0
scalar SlicingScenario.node[9].nic.mac1609_4 TotalLostPackets_SCH 0
scalar SlicingScenario.node[9].nic.mac1609_4 DroppedPacketsInMac_SCH 0
scalar SlicingScenario.node[9].nic.mac1609_4 TooLittleTime_SCH 0
scalar SlicingScenario.node[9].nic.mac1609_4 TimesIntoBackoff_SCH 0
scalar SlicingScenario.node[9].nic.mac1609_4 SlotsBackoff_SCH 0
scalar SlicingScenario.node[9].nic.mac1609_4 NumInternalContention_SCH 0
scalar SlicingScenario.node[9].nic.mac1609_4 RemainingPacketsInEDCA_SCH 0
scalar SlicingScenario.node[9].nic.mac1609_4 totalBusyTime_SCH 11.41392
scalar SlicingScenario.node[9].veinsmobility startTime 11
scalar SlicingScenario.node[9].veinsmobility totalTime 91
scalar SlicingScenario.node[9].veinsmobility stopTime 103
scalar SlicingScenario.node[9].veinsmobility minSpeed 10.612639053622
scalar SlicingScenario.node[9].veinsmobility maxSpeed 11.108486982775
scalar SlicingScenario.node[9].veinsmobility totalDistance 978.27263657075
scalar SlicingScenario.node[9].veinsmobility totalCO2Emission 159.68707087815
scalar SlicingScenario.node[11].appl txPackets_79 0
scalar SlicingScenario.node[11].appl rxPackets_79 0
scalar SlicingScenario.node[11].appl rxNeighborPackets_79 0
scalar SlicingScenario.node[11].appl meanDelay_79 0
scalar SlicingScenario.node[11].appl meanJitter_79 0
scalar SlicingScenario.node[11].appl meanRxPacketSize_79 0
scalar SlicingScenario.node[11].appl meanTxPacketSize_79 0
scalar SlicingScenario.node[11].appl meanRxThroughput_79 0
scalar SlicingScenario.node[11].appl meanTxThroughput_79 0
scalar SlicingScenario.node[11].appl rxTimeOfService_79 0
scalar SlicingScenario.node[11].appl txTimeOfService_79 0
scalar SlicingScenario.node[11].appl txPackets_40_79 0
scalar SlicingScenario.node[11].appl rxPackets_40_79 185
scalar SlicingScenario.node[11].appl rxNeighborPackets_40_79 2099
scalar SlicingScenario.node[11].appl meanDelay_40_79 0.002074265474
scalar SlicingScenario.node[11].appl meanJitter_40_79 1.14814e-05
scalar SlicingScenario.node[11].appl meanRxPacketSize_40_79 1510
scalar SlicingScenario.node[11].appl meanTxPacketSize_40_79 0
scalar SlicingScenario.node[11].appl meanRxThroughput_40_79 30364.131134237
scalar SlicingScenario.node[11].appl meanTxThroughput_40_79 0
scalar SlicingScenario.node[11].appl rxTimeOfService_40_79 73.599998304584
scalar SlicingScenario.node[11].appl txTimeOfService_40_79 0
scalar SlicingScenario.node[11].nic.phy80211p busyTime 0.12590400000001
scalar SlicingScenario.node[11].nic.phy80211p ncollisions 0
scalar SlicingScenario.node[11].nic.phy80211p UnderSensitivityPackets 565
scalar SlicingScenario.node[11].nic.mac1609_4 ReceivedUnicastPackets_CCH 0
scalar SlicingScenario.node[11].nic.mac1609_4 ReceivedBroadcasts_CCH 0
scalar SlicingScenario.node[11].nic.mac1609_4 SentPackets_CCH 0
scalar SlicingScenario.node[11].nic.mac1609_4 SentAcknowledgements_CCH 0
scalar SlicingScenario.node[11].nic.mac1609_4 SNIRLostPackets_CCH 0
scalar SlicingScenario.node[11].nic.mac1609_4 RXTXLostPackets_CCH 0
scalar SlicingScenario.node[11].nic.mac1609_4 TotalLostPackets_CCH 0
scalar SlicingScenario.node[11].nic.mac1609_4 DroppedPacketsInMac_CCH 0
scalar SlicingScenario.node[11].nic.mac1609_4 TooLittleTime_CCH 0
scalar SlicingScenario.node[11].nic.mac1609_4 TimesIntoBackoff_CCH 0
scalar SlicingScenario.node[11].nic.mac1609_4 SlotsBackoff_CCH 0
scalar SlicingScenario.node[11].nic.mac1609_4 NumInternalContention_CCH 0
scalar SlicingScenario.node[11].nic.mac1609_4 RemainingPacketsInEDCA_CCH 0
scalar SlicingScenario.node[11].nic.mac1609_4 totalBusyTime_CCH 0
scalar SlicingScenario.node[11].nic.mac1609_4 ReceivedUnicastPackets_SCH 0
scalar SlicingScenario.node[11].nic.mac1609_4 ReceivedBroadcasts_SCH 5612
scalar SlicingScenario.node[11].nic.mac1609_4 SentPackets_SCH 0
scalar SlicingScenario.node[11].nic.mac1609_4 SentAcknowledgements_SCH 0
scalar SlicingScenario.node[11].nic.mac1609_4 SNIRLostPackets_SCH 0
scalar SlicingScenario.node[11].nic.mac1609_4 RXTXLostPackets_SCH 0
scalar SlicingScenario.node[11].nic.mac1609_4 TotalLostPackets_SCH 0
scalar SlicingScenario.node[11].nic.mac1609_4 DroppedPacketsInMac_SCH 0
scalar SlicingScenario.node[11].nic.mac1609_4 TooLittleTime_SCH 0
scalar SlicingScenario.node[11].nic.mac1609_4 TimesIntoBackoff_SCH 0
scalar SlicingScenario.node[11].nic.mac1609_4 SlotsBackoff_SCH 0
scalar SlicingScenario.node[11].nic.mac1609_4 NumInternalContention_SCH 0
scalar SlicingScenario.node[11].nic.mac1609_4 RemainingPacketsInEDCA_SCH 0
scalar SlicingScenario.node[11].nic.mac1609_4 totalBusyTime_SCH 11.583168
scalar SlicingScenario.node[11].veinsmobility startTime 12
scalar SlicingScenario.node[11].veinsmobility totalTime 91
scalar SlicingScenario.node[11].veinsmobility stopTime 104
scalar SlicingScenario.node[11].veinsmobility minSpeed 10.616427411805
scalar SlicingScenario.node[11].veinsmobility maxSpeed 11.109509473448
scalar SlicingScenario.node[11].veinsmobility totalDistance 978.49032322577
scalar SlicingScenario.node[11].veinsmobility totalCO2Emission 158.36571756051
scalar SlicingScenario.node[8].appl txPackets_61 0
scalar SlicingScenario.node[8].appl rxPackets_61 0
scalar SlicingScenario.node[8].appl rxNeighborPackets_61 0
scalar SlicingScenario.node[8].appl meanDelay_61 0
scalar SlicingScenario.node[8].appl meanJitter_61 0
scalar SlicingScenario.node[8].appl meanRxPacketSize_61 0
scalar SlicingScenario.node[8].appl meanTxPacketSize_61 0
scalar SlicingScenario.node[8].appl meanRxThroughput_61 0
scalar SlicingScenario.node[8].appl meanTxThroughput_61 0
scalar SlicingScenario.node[8].appl rxTimeOfService_61 0
scalar SlicingScenario.node[8].appl txTimeOfService_61 0
scalar SlicingScenario.node[8].appl txPackets_41_61 0
scalar SlicingScenario.node[8].appl rxPackets_41_61 202
scalar SlicingScenario.node[8].appl rxNeighborPackets_41_61 3142
scalar SlicingScenario.node[8].appl meanDelay_41_61 0.002068501901
scalar SlicingScenario.node[8].appl meanJitter_41_61 1.0388893e-05
scalar SlicingScenario.node[8].appl meanRxPacketSize_41_61 1510
scalar SlicingScenario.node[8].appl meanTxPacketSize_41_61 0
scalar SlicingScenario.node[8].appl meanRxThroughput_41_61 30350.250608161
scalar SlicingScenario.node[8].appl meanTxThroughput_41_61 0
scalar SlicingScenario.node[8].appl rxTimeOfService_41_61 80.399995094073
scalar SlicingScenario.node[8].appl txTimeOfService_41_61 0
scalar SlicingScenario.node[8].nic.phy80211p busyTime 0.12231915789475
scalar SlicingScenario.node[8].nic.phy80211p ncollisions 0
scalar SlicingScenario.node[8].nic.phy80211p UnderSensitivityPackets 580
scalar SlicingScenario.node[8].nic.mac1609_4 ReceivedUnicastPackets_CCH 0
scalar SlicingScenario.node[8].nic.mac1609_4 ReceivedBroadcasts_CCH 0
scalar SlicingScenario.node[8].nic.mac1609_4 SentPackets_CCH 0
scalar SlicingScenario.node[8].nic.mac1609_4 SentAcknowledgements_CCH 0
scalar SlicingScenario.node[8].nic.mac1609_4 SNIRLostPackets_CCH 0
scalar SlicingScenario.node[8].nic.mac1609_4 RXTXLostPackets_CCH 0
scalar SlicingScenario.node[8].nic.mac1609_4 TotalLostPackets_CCH 0
scalar SlicingScenario.node[8].nic.mac1609_4 DroppedPacketsInMac_CCH 0
scalar SlicingScenario.node[8].nic.mac1609_4 TooLittleTime_CCH 0
scalar SlicingScenario.node[8].nic.mac1609_4 TimesIntoBackoff_CCH 0
scalar SlicingScenario.node[8].nic.mac1609_4 SlotsBackoff_CCH 0
scalar SlicingScenario.node[8].nic.mac1609_4 NumInternalContention_CCH 0
scalar SlicingScenario.node[8].nic.mac1609_4 RemainingPacketsInEDCA_CCH 0
scalar SlicingScenario.node[8].nic.mac1609_4 totalBusyTime_CCH 0
scalar SlicingScenario.node[8].nic.mac1609_4 ReceivedUnicastPackets_SCH 0
scalar SlicingScenario.node[8].nic.mac1609_4 ReceivedBroadcasts_SCH 5630
scalar SlicingScenario.node[8].nic.mac1609_4 SentPackets_SCH 0
scalar SlicingScenario.node[8].nic.mac1609_4 SentAcknowledgements_SCH 0
scalar SlicingScenario.node[8].nic.mac1609_4 SNIRLostPackets_SCH 0
scalar SlicingScenario.node[8].nic.mac1609_4 RXTXLostPackets_SCH 0
scalar SlicingScenario.node[8].nic.mac1609_4 TotalLostPackets_SCH 0
scalar SlicingScenario.node[8].nic.mac1609_4 DroppedPacketsInMac_SCH 0
scalar SlicingScenario.node[8].nic.mac1609_4 TooLittleTime_SCH 0
scalar SlicingScenario.node[8].nic.mac1609_4 TimesIntoBackoff_SCH 0
scalar SlicingScenario.node[8].nic.mac1609_4 SlotsBackoff_SCH 0
scalar SlicingScenario.node[8].nic.mac1609_4 NumInternalContention_SCH 0
scalar SlicingScenario.node[8].nic.mac1609_4 RemainingPacketsInEDCA_SCH 0
scalar SlicingScenario.node[8].nic.mac1609_4 totalBusyTime_SCH 11.62032
scalar SlicingScenario.node[8].veinsmobility startTime 9
scalar SlicingScenario.node[8].veinsmobility totalTime 94
scalar SlicingScenario.node[8].veinsmobility stopTime 104
scalar SlicingScenario.node[8].veinsmobility minSpeed 4.9496456519901
scalar SlicingScenario.node[8].veinsmobility maxSpeed 11.103874607258
scalar SlicingScenario.node[8].veinsmobility totalDistance 984.85176748884
scalar SlicingScenario.node[8].veinsmobility totalCO2Emission 174.261018904
scalar SlicingScenario.node[10].appl txPackets_73 0
scalar SlicingScenario.node[10].appl rxPackets_73 0
scalar SlicingScenario.node[10].appl rxNeighborPackets_73 0
scalar SlicingScenario.node[10].appl meanDelay_73 0
scalar SlicingScenario.node[10].appl meanJitter_73 0
scalar SlicingScenario.node[10].appl meanRxPacketSize_73 0
scalar SlicingScenario.node[10].appl meanTxPacketSize_73 0
scalar SlicingScenario.node[10].appl meanRxThroughput_73 0
scalar SlicingScenario.node[10].appl meanTxThroughput_73 0
scalar SlicingScenario.node[10].appl rxTimeOfService_73 0
scalar SlicingScenario.node[10].appl txTimeOfService_73 0
scalar SlicingScenario.node[10].appl txPackets_41_73 0
scalar SlicingScenario.node[10].appl rxPackets_41_73 189
scalar SlicingScenario.node[10].appl rxNeighborPackets_41_73 3177
scalar SlicingScenario.node[10].appl meanDelay_41_73 0.005353969543
scalar SlicingScenario.node[10].appl meanJitter_41_73 8.7295521e-05
scalar SlicingScenario.node[10].appl meanRxPacketSize_41_73 1510
scalar SlicingScenario.node[10].appl meanTxPacketSize_41_73 0
scalar SlicingScenario.node[10].appl meanRxThroughput_41_73 30358.795273026
scalar SlicingScenario.node[10].appl meanTxThroughput_41_73 0
scalar SlicingScenario.node[10].appl rxTimeOfService_41_73 75.204565249286
scalar SlicingScenario.node[10].appl txTimeOfService_41_73 0
scalar SlicingScenario.node[10].nic.phy80211p busyTime 0.12639225806453
scalar SlicingScenario.node[10].nic.phy80211p ncollisions 0
scalar SlicingScenario.node[10].nic.phy80211p UnderSensitivityPackets 582
scalar SlicingScenario.node[10].nic.mac1609_4 ReceivedUnicastPackets_CCH 0
scalar SlicingScenario.node[10].nic.mac1609_4 ReceivedBroadcasts_CCH 0
scalar SlicingScenario.node[10].nic.mac1609_4 SentPackets_CCH 0
scalar SlicingScenario.node[10].nic.mac1609_4 SentAcknowledgements_CCH 0
scalar SlicingScenario.node[10].nic.mac1609_4 SNIRLostPackets_CCH 0
scalar SlicingScenario.node[10].nic.mac1609_4 RXTXLostPackets_CCH 0
scalar SlicingScenario.node[10].nic.mac1609_4 TotalLostPackets_CCH 0
scalar SlicingScenario.node[10].nic.mac1609_4 DroppedPacketsInMac_CCH 0
scalar SlicingScenario.node[10].nic.mac1609_4 TooLittleTime_CCH 0
scalar SlicingScenario.node[10].nic.mac1609_4 TimesIntoBackoff_CCH 0
scalar SlicingScenario.node[10].nic.mac1609_4 SlotsBackoff_CCH 0
scalar SlicingScenario.node[10].nic.mac1609_4 NumInternalContention_CCH 0
scalar SlicingScenario.node[10].nic.mac1609_4 RemainingPacketsInEDCA_CCH 0
scalar SlicingScenario.node[10].nic.mac1609_4 totalBusyTime_CCH 0
scalar SlicingScenario.node[10].nic.mac1609_4 ReceivedUnicastPackets_SCH 0
scalar SlicingScenario.node[10].nic.mac1609_4 ReceivedBroadcasts_SCH 5695
scalar SlicingScenario.node[10].nic.mac1609_4 SentPackets_SCH 0
scalar SlicingScenario.node[10].nic.mac1609_4 SentAcknowledgements_SCH 0
scalar SlicingScenario.node[10].nic.mac1609_4 SNIRLostPackets_SCH 0
scalar SlicingScenario.node[10].nic.mac1609_4 RXTXLostPackets_SCH 0
scalar SlicingScenario.node[10].nic.mac1609_4 TotalLostPackets_SCH 0
scalar SlicingScenario.node[10].nic.mac1609_4 DroppedPacketsInMac_SCH 0
scalar SlicingScenario.node[10].nic.mac1609_4 TooLittleTime_SCH 0
scalar SlicingScenario.node[10].nic.mac1609_4 TimesIntoBackoff_SCH 0
scalar SlicingScenario.node[10].nic.mac1609_4 SlotsBackoff_SCH 0
scalar SlicingScenario.node[10].nic.mac1609_4 NumInternalContention_SCH 0
scalar SlicingScenario.node[10].nic.mac1609_4 RemainingPacketsInEDCA_SCH 0
scalar SlicingScenario.node[10].nic.mac1609_4 totalBusyTime_SCH 11.75448
scalar SlicingScenario.node[10].veinsmobility startTime 12
scalar SlicingScenario.node[10].veinsmobility totalTime 92
scalar SlicingScenario.node[10].veinsmobility stopTime 105
scalar SlicingScenario.node[10].veinsmobility minSpeed 7.7884593245555
scalar SlicingScenario.node[10].veinsmobility maxSpeed 11.102132753832
scalar SlicingScenario.node[10].veinsmobility totalDistance 980.37242155988
scalar SlicingScenario.node[10].veinsmobility totalCO2Emission 166.21442913187
scalar SlicingScenario.node[12].appl txPackets_85 0
scalar SlicingScenario.node[12].appl rxPackets_85 0
scalar SlicingScenario.node[12].appl rxNeighborPackets_85 0
scalar SlicingScenario.node[12].appl meanDelay_85 0
scalar SlicingScenario.node[12].appl meanJitter_85 0
scalar SlicingScenario.node[12].appl meanRxPacketSize_85 0
scalar SlicingScenario.node[12].appl meanTxPacketSize_85 0
scalar SlicingScenario.node[12].appl meanRxThroughput_85 0
scalar SlicingScenario.node[12].appl meanTxThroughput_85 0
scalar SlicingScenario.node[12].appl rxTimeOfService_85 0
scalar SlicingScenario.node[12].appl txTimeOfService_85 0
scalar SlicingScenario.node[12].appl txPackets_40_85 0
scalar SlicingScenario.node[12].appl rxPackets_40_85 185
scalar SlicingScenario.node[12].appl rxNeighborPackets_40_85 2144
scalar SlicingScenario.node[12].appl meanDelay_40_85 0.002074249682
scalar SlicingScenario.node[12].appl meanJitter_40_85 1.1391497e-05
scalar SlicingScenario.node[12].appl meanRxPacketSize_40_85 1510
scalar SlicingScenario.node[12].appl meanTxPacketSize_40_85 0
scalar SlicingScenario.node[12].appl meanRxThroughput_40_85 30364.127425057
scalar SlicingScenario.node[12].appl meanTxThroughput_40_85 0
scalar SlicingScenario.node[12].appl rxTimeOfService_40_85 73.600007295312
scalar SlicingScenario.node[12].appl txTimeOfService_40_85 0
scalar SlicingScenario.node[12].nic.phy80211p busyTime 0.12776608695653
scalar SlicingScenario.node[12].nic.phy80211p ncollisions 0
scalar SlicingScenario.node[12].nic.phy80211p UnderSensitivityPackets 567
scalar SlicingScenario.node[12].nic.mac1609_4 ReceivedUnicastPackets_CCH 0
scalar SlicingScenario.node[12].nic.mac1609_4 ReceivedBroadcasts_CCH 0
scalar SlicingScenario.node[12].nic.mac1609_4 SentPackets_CCH 0
scalar SlicingScenario.node[12].nic.mac1609_4 SentAcknowledgements_CCH 0
scalar SlicingScenario.node[12].nic.mac1609_4 SNIRLostPackets_CCH 0
scalar SlicingScenario.node[12].nic.mac1609_4 RXTXLostPackets_CCH 0
scalar SlicingScenario.node[12].nic.mac1609_4 TotalLostPackets_CCH 0
scalar SlicingScenario.node[12].nic.mac1609_4 DroppedPacketsInMac_CCH 0
scalar SlicingScenario.node[12].nic.mac1609_4 TooLittleTime_CCH 0
scalar SlicingScenario.node[12].nic.mac1609_4 TimesIntoBackoff_CCH 0
scalar SlicingScenario.node[12].nic.mac1609_4 SlotsBackoff_CCH 0
scalar SlicingScenario.node[12].nic.mac1609_4 NumInternalContention_CCH 0
scalar SlicingScenario.node[12].nic.mac1609_4 RemainingPacketsInEDCA_CCH 0
scalar SlicingScenario.node[12].nic.mac1609_4 totalBusyTime_CCH 0
scalar SlicingScenario.node[12].nic.mac1609_4 ReceivedUnicastPackets_SCH 0
scalar SlicingScenario.node[12].nic.mac1609_4 ReceivedBroadcasts_SCH 5695
scalar SlicingScenario.node[12].nic.mac1609_4 SentPackets_SCH 0
scalar SlicingScenario.node[12].nic.mac1609_4 SentAcknowledgements_SCH 0
scalar SlicingScenario.node[12].nic.mac1609_4 SNIRLostPackets_SCH 0
scalar SlicingScenario.node[12].nic.mac1609_4 RXTXLostPackets_SCH 0
scalar SlicingScenario.node[12].nic.mac1609_4 TotalLostPackets_SCH 0
scalar SlicingScenario.node[12].nic.mac1609_4 DroppedPacketsInMac_SCH 0
scalar SlicingScenario.node[12].nic.mac1609_4 TooLittleTime_SCH 0
scalar SlicingScenario.node[12].nic.mac1609_4 TimesIntoBackoff_SCH 0
scalar SlicingScenario.node[12].nic.mac1609_4 SlotsBackoff_SCH 0
scalar SlicingScenario.node[12].nic.mac1609_4 NumInternalContention_SCH 0
scalar SlicingScenario.node[12].nic.mac1609_4 RemainingPacketsInEDCA_SCH 0
scalar SlicingScenario.node[12].nic.mac1609_4 totalBusyTime_SCH 11.75448
scalar SlicingScenario.node[12].veinsmobility startTime 13
scalar SlicingScenario.node[12].veinsmobility totalTime 91
scalar SlicingScenario.node[12].veinsmobility stopTime 105
scalar SlicingScenario.node[12].veinsmobility minSpeed 10.586417728924
scalar SlicingScenario.node[12].veinsmobility maxSpeed 11.099407317829
scalar SlicingScenario.node[12].veinsmobility totalDistance 976.15088466442
scalar SlicingScenario.node[12].veinsmobility totalCO2Emission 159.44413745654
scalar SlicingScenario.node[13].appl txPackets_91 0
scalar SlicingScenario.node[13].appl rxPackets_91 0
scalar SlicingScenario.node[13].appl rxNeighborPackets_91 0
scalar SlicingScenario.node[13].appl meanDelay_91 0
scalar SlicingScenario.node[13].appl meanJitter_91 0
scalar SlicingScenario.node[13].appl meanRxPacketSize_91 0
scalar SlicingScenario.node[13].appl meanTxPacketSize_91 0
scalar SlicingScenario.node[13].appl meanRxThroughput_91 0
scalar SlicingScenario.node[13].appl meanTxThroughput_91 0
scalar SlicingScenario.node[13].appl rxTimeOfService_91 0
scalar SlicingScenario.node[13].appl txTimeOfService_91 0
scalar SlicingScenario.node[13].appl txPackets_41_91 0
scalar SlicingScenario.node[13].appl rxPackets_41_91 184
scalar SlicingScenario.node[13].appl rxNeighborPackets_41_91 3271
scalar SlicingScenario.node[13].appl meanDelay_41_91 0.003444912213
scalar SlicingScenario.node[13].appl meanJitter_41_91 5.3641253e-05
scalar SlicingScenario.node[13].appl meanRxPacketSize_41_91 1510
scalar SlicingScenario.node[13].appl meanTxPacketSize_41_91 0
scalar SlicingScenario.node[13].appl meanRxThroughput_41_91 30365.009752303
scalar SlicingScenario.node[13].appl meanTxThroughput_41_91 0
scalar SlicingScenario.node[13].appl rxTimeOfService_41_91 73.200042355705
scalar SlicingScenario.node[13].appl txTimeOfService_41_91 0
scalar SlicingScenario.node[13].nic.phy80211p busyTime 0.13043148387098
scalar SlicingScenario.node[13].nic.phy80211p ncollisions 0
scalar SlicingScenario.node[13].nic.phy80211p UnderSensitivityPackets 570
scalar SlicingScenario.node[13].nic.mac1609_4 ReceivedUnicastPackets_CCH 0
scalar SlicingScenario.node[13].nic.mac1609_4 ReceivedBroadcasts_CCH 0
scalar SlicingScenario.node[13].nic.mac1609_4 SentPackets_CCH 0
scalar SlicingScenario.node[13].nic.mac1609_4 SentAcknowledgements_CCH 0
scalar SlicingScenario.node[13].nic.mac1609_4 SNIRLostPackets_CCH 0
scalar SlicingScenario.node[13].nic.mac1609_4 RXTXLostPackets_CCH 0
scalar SlicingScenario.node[13].nic.mac1609_4 TotalLostPackets_CCH 0
scalar SlicingScenario.node[13].nic.mac1609_4 DroppedPacketsInMac_CCH 0
scalar SlicingScenario.node[13].nic.mac1609_4 TooLittleTime_CCH 0
scalar SlicingScenario.node[13].nic.mac1609_4 TimesIntoBackoff_CCH 0
scalar SlicingScenario.node[13].nic.mac1609_4 SlotsBackoff_CCH 0
scalar SlicingScenario.node[13].nic.mac1609_4 NumInternalContention_CCH 0
scalar SlicingScenario.node[13].nic.mac1609_4 RemainingPacketsInEDCA_CCH 0
scalar SlicingScenario.node[13].nic.mac1609_4 totalBusyTime_CCH 0
scalar SlicingScenario.node[13].nic.mac1609_4 ReceivedUnicastPackets_SCH 0
scalar SlicingScenario.node[13].nic.mac1609_4 ReceivedBroadcasts_SCH 5877
scalar SlicingScenario.node[13].nic.mac1609_4 SentPackets_SCH 0
scalar SlicingScenario.node[13].nic.mac1609_4 SentAcknowledgements_SCH 0
scalar SlicingScenario.node[13].nic.mac1609_4 SNIRLostPackets_SCH 0
scalar SlicingScenario.node[13].nic.mac1609_4 RXTXLostPackets_SCH 0
scalar SlicingScenario.node[13].nic.mac1609_4 TotalLostPackets_SCH 0
scalar SlicingScenario.node[13].nic.mac1609_4 DroppedPacketsInMac_SCH 0
scalar SlicingScenario.node[13].nic.mac1609_4 TooLittleTime_SCH 0
scalar SlicingScenario.node[13].nic.mac1609_4 TimesIntoBackoff_SCH 0
scalar SlicingScenario.node[13].nic.mac1609_4 SlotsBackoff_SCH 0
scalar SlicingScenario.node[13].nic.mac1609_4 NumInternalContention_SCH 0
scalar SlicingScenario.node[13].nic.mac1609_4 RemainingPacketsInEDCA_SCH 0
scalar SlicingScenario.node[13].nic.mac1609_4 totalBusyTime_SCH 12.130128
scalar SlicingScenario.node[13].veinsmobility startTime 14
scalar SlicingScenario.node[13].veinsmobility totalTime 92
scalar SlicingScenario.node[13].veinsmobility stopTime 107
scalar SlicingScenario.node[13].veinsmobility minSpeed 9.3774080245383
scalar SlicingScenario.node[13].veinsmobility maxSpeed 11.106598582016
scalar SlicingScenario.node[13].veinsmobility totalDistance 987.06836101921
scalar SlicingScenario.node[13].veinsmobility totalCO2Emission 164.96883575564
scalar SlicingScenario.node[14].appl txPackets_97 0
scalar SlicingScenario.node[14].appl rxPackets_97 0
scalar SlicingScenario.node[14].appl rxNeighborPackets_97 0
scalar SlicingScenario.node[14].appl meanDelay_97 0
scalar SlicingScenario.node[14].appl meanJitter_97 0
scalar SlicingScenario.node[14].appl meanRxPacketSize_97 0
scalar SlicingScenario.node[14].appl meanTxPacketSize_97 0
scalar SlicingScenario.node[14].appl meanRxThroughput_97 0
scalar SlicingScenario.node[14].appl meanTxThroughput_97 0
scalar SlicingScenario.node[14].appl rxTimeOfService_97 0
scalar SlicingScenario.node[14].appl txTimeOfService_97 0
scalar SlicingScenario.node[14].appl txPackets_40_97 0
scalar SlicingScenario.node[14].appl rxPackets_40_97 178
scalar SlicingScenario.node[14].appl rxNeighborPackets_40_97 2240
scalar SlicingScenario.node[14].appl meanDelay_40_97 0.002074178933
scalar SlicingScenario.node[14].appl meanJitter_40_97 1.1806121e-05
scalar SlicingScenario.node[14].appl meanRxPacketSize_40_97 1510
scalar SlicingScenario.node[14].appl meanTxPacketSize_40_97 0
scalar SlicingScenario.node[14].appl meanRxThroughput_40_97 30370.621733007
scalar SlicingScenario.node[14].appl meanTxThroughput_40_97 0
scalar SlicingScenario.node[14].appl rxTimeOfService_40_97 70.799999384376
scalar SlicingScenario.node[14].appl txTimeOfService_40_97 0
scalar SlicingScenario.node[14].nic.phy80211p busyTime 0.13140052173914
scalar SlicingScenario.node[14].nic.phy80211p ncollisions 0
scalar SlicingScenario.node[14].nic.phy80211p UnderSensitivityPackets 573
scalar SlicingScenario.node[14].nic.mac1609_4 ReceivedUnicastPackets_CCH 0
scalar SlicingScenario.node[14].nic.mac1609_4 ReceivedBroadcasts_CCH 0
scalar SlicingScenario.node[14].nic.mac1609_4 SentPackets_CCH 0
scalar SlicingScenario.node[14].nic.mac1609_4 SentAcknowledgements_CCH 0
scalar SlicingScenario.node[14].nic.mac1609_4 SNIRLostPackets_CCH 0
scalar SlicingScenario.node[14].nic.mac1609_4 RXTXLostPackets_CCH 0
scalar SlicingScenario.node[14].nic.mac1609_4 TotalLostPackets_CCH 0
scalar SlicingScenario.node[14].nic.mac1609_4 DroppedPacketsInMac_CCH 0
scalar SlicingScenario.node[14].nic.mac1609_4 TooLittleTime_CCH 0
scalar SlicingScenario.node[14].nic.mac1609_4 TimesIntoBackoff_CCH 0
scalar SlicingScenario.node[14].nic.mac1609_4 SlotsBackoff_CCH 0
scalar SlicingScenario.node[14].nic.mac1609_4 NumInternalContention_CCH 0
scalar SlicingScenario.node[14].nic.mac1609_4 RemainingPacketsInEDCA_CCH 0
scalar SlicingScenario.node[14].nic.mac1609_4 totalBusyTime_CCH 0
scalar SlicingScenario.node[14].nic.mac1609_4 ReceivedUnicastPackets_SCH 0
scalar SlicingScenario.node[14].nic.mac1609_4 ReceivedBroadcasts_SCH 5857
scalar SlicingScenario.node[14].nic.mac1609_4 SentPackets_SCH 0
scalar SlicingScenario.node[14].nic.mac1609_4 SentAcknowledgements_SCH 0
scalar SlicingScenario.node[14].nic.mac1609_4 SNIRLostPackets_SCH 0
scalar SlicingScenario.node[14].nic.mac1609_4 RXTXLostPackets_SCH 0
scalar SlicingScenario.node[14].nic.mac1609_4 TotalLostPackets_SCH 0
scalar SlicingScenario.node[14].nic.mac1609_4 DroppedPacketsInMac_SCH 0
scalar SlicingScenario.node[14].nic.mac1609_4 TooLittleTime_SCH 0
scalar SlicingScenario.node[14].nic.mac1609_4 TimesIntoBackoff_SCH 0
scalar SlicingScenario.node[14].nic.mac1609_4 SlotsBackoff_SCH 0
scalar SlicingScenario.node[14].nic.mac1609_4 NumInternalContention_SCH 0
scalar SlicingScenario.node[14].nic.mac1609_4 RemainingPacketsInEDCA_SCH 0
scalar SlicingScenario.node[14].nic.mac1609_4 totalBusyTime_SCH 12.088848
scalar SlicingScenario.node[14].veinsmobility startTime 15
scalar SlicingScenario.node[14].veinsmobility totalTime 91
scalar SlicingScenario.node[14].veinsmobility stopTime 107
scalar SlicingScenario.node[14].veinsmobility minSpeed 10.553401449782
scalar SlicingScenario.node[14].veinsmobility maxSpeed 11.108329588212
scalar SlicingScenario.node[14].veinsmobility totalDistance 980.19828290101
scalar SlicingScenario.node[14].veinsmobility totalCO2Emission 159.65280465251
scalar SlicingScenario.node[15].appl txPackets_103 0
scalar SlicingScenario.node[15].appl rxPackets_103 0
scalar SlicingScenario.node[15].appl rxNeighborPackets_103 0
scalar SlicingScenario.node[15].appl meanDelay_103 0
scalar SlicingScenario.node[15].appl meanJitter_103 0
scalar SlicingScenario.node[15].appl meanRxPacketSize_103 0
scalar SlicingScenario.node[15].appl meanTxPacketSize_103 0
scalar SlicingScenario.node[15].appl meanRxThroughput_103 0
scalar SlicingScenario.node[15].appl meanTxThroughput_103 0
scalar SlicingScenario.node[15].appl rxTimeOfService_103 0
scalar SlicingScenario.node[15].appl txTimeOfService_103 0
scalar SlicingScenario.node[15].appl txPackets_41_103 0
scalar SlicingScenario.node[15].appl rxPackets_41_103 176
scalar SlicingScenario.node[15].appl rxNeighborPackets_41_103 3298
scalar SlicingScenario.node[15].appl meanDelay_41_103 0.00410516927
scalar SlicingScenario.node[15].appl meanJitter_41_103 7.3527074e-05
scalar SlicingScenario.node[15].appl meanRxPacketSize_41_103 1510
scalar SlicingScenario.node[15].appl meanTxPacketSize_41_103 0
scalar SlicingScenario.node[15].appl meanRxThroughput_41_103 30371.650122149
scalar SlicingScenario.node[15].appl meanTxThroughput_41_103 0
scalar SlicingScenario.node[15].appl rxTimeOfService_41_103 70.002123409473
scalar SlicingScenario.node[15].appl txTimeOfService_41_103 0
scalar SlicingScenario.node[15].nic.phy80211p busyTime 0.13315043478262
scalar SlicingScenario.node[15].nic.phy80211p ncollisions 0
scalar SlicingScenario.node[15].nic.phy80211p UnderSensitivityPackets 577
scalar SlicingScenario.node[15].nic.mac1609_4 ReceivedUnicastPackets_CCH 0
scalar SlicingScenario.node[15].nic.mac1609_4 ReceivedBroadcasts_CCH 0
scalar SlicingScenario.node[15].nic.mac1609_4 SentPackets_CCH 0
scalar SlicingScenario.node[15].nic.mac1609_4 SentAcknowledgements_CCH 0
scalar SlicingScenario.node[15].nic.mac1609_4 SNIRLostPackets_CCH 0
scalar SlicingScenario.node[15].nic.mac1609_4 RXTXLostPackets_CCH 0
scalar SlicingScenario.node[15].nic.mac1609_4 TotalLostPackets_CCH 0
scalar SlicingScenario.node[15].nic.mac1609_4 DroppedPacketsInMac_CCH 0
scalar SlicingScenario.node[15].nic.mac1609_4 TooLittleTime_CCH 0
scalar SlicingScenario.node[15].nic.mac1609_4 TimesIntoBackoff_CCH 0
scalar SlicingScenario.node[15].nic.mac1609_4 SlotsBackoff_CCH 0
scalar SlicingScenario.node[15].nic.mac1609_4 NumInternalContention_CCH 0
scalar SlicingScenario.node[15].nic.mac1609_4 RemainingPacketsInEDCA_CCH 0
scalar SlicingScenario.node[15].nic.mac1609_4 totalBusyTime_CCH 0
scalar SlicingScenario.node[15].nic.mac1609_4 ReceivedUnicastPackets_SCH 0
scalar SlicingScenario.node[15].nic.mac1609_4 ReceivedBroadcasts_SCH 5935
scalar SlicingScenario.node[15].nic.mac1609_4 SentPackets_SCH 0
scalar SlicingScenario.node[15].nic.mac1609_4 SentAcknowledgements_SCH 0
scalar SlicingScenario.node[15].nic.mac1609_4 SNIRLostPackets_SCH 0
scalar SlicingScenario.node[15].nic.mac1609_4 RXTXLostPackets_SCH 0
scalar SlicingScenario.node[15].nic.mac1609_4 TotalLostPackets_SCH 0
scalar SlicingScenario.node[15].nic.mac1609_4 DroppedPacketsInMac_SCH 0
scalar SlicingScenario.node[15].nic.mac1609_4 TooLittleTime_SCH 0
scalar SlicingScenario.node[15].nic.mac1609_4 TimesIntoBackoff_SCH 0
scalar SlicingScenario.node[15].nic.mac1609_4 SlotsBackoff_SCH 0
scalar SlicingScenario.node[15].nic.mac1609_4 NumInternalContention_SCH 0
scalar SlicingScenario.node[15].nic.mac1609_4 RemainingPacketsInEDCA_SCH 0
scalar SlicingScenario.node[15].nic.mac1609_4 totalBusyTime_SCH 12.24984
scalar SlicingScenario.node[15].veinsmobility startTime 16
scalar SlicingScenario.node[15].veinsmobility totalTime 91
scalar SlicingScenario.node[15].veinsmobility stopTime 108
scalar SlicingScenario.node[15].veinsmobility minSpeed 10.529378524399
scalar SlicingScenario.node[15].veinsmobility maxSpeed 11.10344703916
scalar SlicingScenario.node[15].veinsmobility totalDistance 978.21181935707
scalar SlicingScenario.node[15].veinsmobility totalCO2Emission 157.26080405349
scalar SlicingScenario.node[16].appl txPackets_109 0
scalar SlicingScenario.node[16].appl rxPackets_109 0
scalar SlicingScenario.node[16].appl rxNeighborPackets_109 0
scalar SlicingScenario.node[16].appl meanDelay_109 0
scalar SlicingScenario.node[16].appl meanJitter_109 0
scalar SlicingScenario.node[16].appl meanRxPacketSize_109 0
scalar SlicingScenario.node[16].appl meanTxPacketSize_109 0
scalar SlicingScenario.node[16].appl meanRxThroughput_109 0
scalar SlicingScenario.node[16].appl meanTxThroughput_109 0
scalar SlicingScenario.node[16].appl rxTimeOfService_109 0
scalar SlicingScenario.node[16].appl txTimeOfService_109 0
scalar SlicingScenario.node[16].appl txPackets_41_109 0
scalar SlicingScenario.node[16].appl rxPackets_41_109 175
scalar SlicingScenario.node[16].appl rxNeighborPackets_41_109 3334
scalar SlicingScenario.node[16].appl meanDelay_41_109 0.004640406462
scalar SlicingScenario.node[16].appl meanJitter_41_109 7.3830863e-05
scalar SlicingScenario.node[16].appl meanRxPacketSize_41_109 1510
scalar SlicingScenario.node[16].appl meanTxPacketSize_41_109 0
scalar SlicingScenario.node[16].appl meanRxThroughput_41_109 30372.066238403
scalar SlicingScenario.node[16].appl meanTxThroughput_41_109 0
scalar SlicingScenario.node[16].appl rxTimeOfService_41_109 69.603430448436
scalar SlicingScenario.node[16].appl txTimeOfService_41_109 0
scalar SlicingScenario.node[16].nic.phy80211p busyTime 0.13487791304349
scalar SlicingScenario.node[16].nic.phy80211p ncollisions 0
scalar SlicingScenario.node[16].nic.phy80211p UnderSensitivityPackets 583
scalar SlicingScenario.node[16].nic.mac1609_4 ReceivedUnicastPackets_CCH 0
scalar SlicingScenario.node[16].nic.mac1609_4 ReceivedBroadcasts_CCH 0
scalar SlicingScenario.node[16].nic.mac1609_4 SentPackets_CCH 0
scalar SlicingScenario.node[16].nic.mac1609_4 SentAcknowledgements_CCH 0
scalar SlicingScenario.node[16].nic.mac1609_4 SNIRLostPackets_CCH 0
scalar SlicingScenario.node[16].nic.mac1609_4 RXTXLostPackets_CCH 0
scalar SlicingScenario.node[16].nic.mac1609_4 TotalLostPackets_CCH 0
scalar SlicingScenario.node[16].nic.mac1609_4 DroppedPacketsInMac_CCH 0
scalar SlicingScenario.node[16].nic.mac1609_4 TooLittleTime_CCH 0
scalar SlicingScenario.node[16].nic.mac1609_4 TimesIntoBackoff_CCH 0
scalar SlicingScenario.node[16].nic.mac1609_4 SlotsBackoff_CCH 0
scalar SlicingScenario.node[16].nic.mac1609_4 NumInternalContention_CCH 0
scalar SlicingScenario.node[16].nic.mac1609_4 RemainingPacketsInEDCA_CCH 0
scalar SlicingScenario.node[16].nic.mac1609_4 totalBusyTime_CCH 0
scalar SlicingScenario.node[16].nic.mac1609_4 ReceivedUnicastPackets_SCH 0
scalar SlicingScenario.node[16].nic.mac1609_4 ReceivedBroadcasts_SCH 6012
scalar SlicingScenario.node[16].nic.mac1609_4 SentPackets_SCH 0
scalar SlicingScenario.node[16].nic.mac1609_4 SentAcknowledgements_SCH 0
scalar SlicingScenario.node[16].nic.mac1609_4 SNIRLostPackets_SCH 0
scalar SlicingScenario.node[16].nic.mac1609_4 RXTXLostPackets_SCH 0
scalar SlicingScenario.node[16].nic.mac1609_4 TotalLostPackets_SCH 0
scalar SlicingScenario.node[16].nic.mac1609_4 DroppedPacketsInMac_SCH 0
scalar SlicingScenario.node[16].nic.mac1609_4 TooLittleTime_SCH 0
scalar SlicingScenario.node[16].nic.mac1609_4 TimesIntoBackoff_SCH 0
scalar SlicingScenario.node[16].nic.mac1609_4 SlotsBackoff_SCH 0
scalar SlicingScenario.node[16].nic.mac1609_4 NumInternalContention_SCH 0
scalar SlicingScenario.node[16].nic.mac1609_4 RemainingPacketsInEDCA_SCH 0
scalar SlicingScenario.node[16].nic.mac1609_4 totalBusyTime_SCH 12.408768
scalar SlicingScenario.node[16].veinsmobility startTime 17
scalar SlicingScenario.node[16].veinsmobility totalTime 91
scalar SlicingScenario.node[16].veinsmobility stopTime 109
scalar SlicingScenario.node[16].veinsmobility minSpeed 10.624080800232
scalar SlicingScenario.node[16].veinsmobility maxSpeed 11.10743592646
scalar SlicingScenario.node[16].veinsmobility totalDistance 978.57091575482
scalar SlicingScenario.node[16].veinsmobility totalCO2Emission 157.20746173778
scalar SlicingScenario.node[17].appl txPackets_115 0
scalar SlicingScenario.node[17].appl rxPackets_115 0
scalar SlicingScenario.node[17].appl rxNeighborPackets_115 0
scalar SlicingScenario.node[17].appl meanDelay_115 0
scalar SlicingScenario.node[17].appl meanJitter_115 0
scalar SlicingScenario.node[17].appl meanRxPacketSize_115 0
scalar SlicingScenario.node[17].appl meanTxPacketSize_115 0
scalar SlicingScenario.node[17].appl meanRxThroughput_115 0
scalar SlicingScenario.node[17].appl meanTxThroughput_115 0
scalar SlicingScenario.node[17].appl rxTimeOfService_115 0
scalar SlicingScenario.node[17].appl txTimeOfService_115 0
scalar SlicingScenario.node[17].appl txPackets_41_115 0
scalar SlicingScenario.node[17].appl rxPackets_41_115 172
scalar SlicingScenario.node[17].appl rxNeighborPackets_41_115 3372
scalar SlicingScenario.node[17].appl meanDelay_41_115 0.002072615773
scalar SlicingScenario.node[17].appl meanJitter_41_115 1.2348982e-05
scalar SlicingScenario.node[17].appl meanRxPacketSize_41_115 1510
scalar SlicingScenario.node[17].appl meanTxPacketSize_41_115 0
scalar SlicingScenario.node[17].appl meanRxThroughput_41_115 30376.607079249
scalar SlicingScenario.node[17].appl meanTxThroughput_41_115 0
scalar SlicingScenario.node[17].appl rxTimeOfService_41_115 68.400002494662
scalar SlicingScenario.node[17].appl txTimeOfService_41_115 0
scalar SlicingScenario.node[17].nic.phy80211p busyTime 0.13662782608697
scalar SlicingScenario.node[17].nic.phy80211p ncollisions 0
scalar SlicingScenario.node[17].nic.phy80211p UnderSensitivityPackets 587
scalar SlicingScenario.node[17].nic.mac1609_4 ReceivedUnicastPackets_CCH 0
scalar SlicingScenario.node[17].nic.mac1609_4 ReceivedBroadcasts_CCH 0
scalar SlicingScenario.node[17].nic.mac1609_4 SentPackets_CCH 0
scalar SlicingScenario.node[17].nic.mac1609_4 SentAcknowledgements_CCH 0
scalar SlicingScenario.node[17].nic.mac1609_4 SNIRLostPackets_CCH 0
scalar SlicingScenario.node[17].nic.mac1609_4 RXTXLostPackets_CCH 0
scalar SlicingScenario.node[17].nic.mac1609_4 TotalLostPackets_CCH 0
scalar SlicingScenario.node[17].nic.mac1609_4 DroppedPacketsInMac_CCH 0
scalar SlicingScenario.node[17].nic.mac1609_4 TooLittleTime_CCH 0
scalar SlicingScenario.node[17].nic.mac1609_4 TimesIntoBackoff_CCH 0
scalar SlicingScenario.node[17].nic.mac1609_4 SlotsBackoff_CCH 0
scalar SlicingScenario.node[17].nic.mac1609_4 NumInternalContention_CCH 0
scalar SlicingScenario.node[17].nic.mac1609_4 RemainingPacketsInEDCA_CCH 0
scalar SlicingScenario.node[17].nic.mac1609_4 totalBusyTime_CCH 0
scalar SlicingScenario.node[17].nic.mac1609_4 ReceivedUnicastPackets_SCH 0
scalar SlicingScenario.node[17].nic.mac1609_4 ReceivedBroadcasts_SCH 6090
scalar SlicingScenario.node[17].nic.mac1609_4 SentPackets_SCH 0
scalar SlicingScenario.node[17].nic.mac1609_4 SentAcknowledgements_SCH 0
scalar SlicingScenario.node[17].nic.mac1609_4 SNIRLostPackets_SCH 0
scalar SlicingScenario.node[17].nic.mac1609_4 RXTXLostPackets_SCH 0
scalar SlicingScenario.node[17].nic.mac1609_4 TotalLostPackets_SCH 0
scalar SlicingScenario.node[17].nic.mac1609_4 DroppedPacketsInMac_SCH 0
scalar SlicingScenario.node[17].nic.mac1609_4 TooLittleTime_SCH 0
scalar SlicingScenario.node[17].nic.mac1609_4 TimesIntoBackoff_SCH 0
scalar SlicingScenario.node[17].nic.mac1609_4 SlotsBackoff_SCH 0
scalar SlicingScenario.node[17].nic.mac1609_4 NumInternalContention_SCH 0
scalar SlicingScenario.node[17].nic.mac1609_4 RemainingPacketsInEDCA_SCH 0
scalar SlicingScenario.node[17].nic.mac1609_4 totalBusyTime_SCH 12.56976
scalar SlicingScenario.node[17].veinsmobility startTime 18
scalar SlicingScenario.node[17].veinsmobility totalTime 91
scalar SlicingScenario.node[17].veinsmobility stopTime 110
scalar SlicingScenario.node[17].veinsmobility minSpeed 10.614776191083
scalar SlicingScenario.node[17].veinsmobility maxSpeed 11.107921701171
scalar SlicingScenario.node[17].veinsmobility totalDistance 980.45629001832
scalar SlicingScenario.node[17].veinsmobility totalCO2Emission 159.51414526207
scalar SlicingScenario.node[18].appl txPackets_121 0
scalar SlicingScenario.node[18].appl rxPackets_121 0
scalar SlicingScenario.node[18].appl rxNeighborPackets_121 0
scalar SlicingScenario.node[18].appl meanDelay_121 0
scalar SlicingScenario.node[18].appl meanJitter_121 0
scalar SlicingScenario.node[18].appl meanRxPacketSize_121 0
scalar SlicingScenario.node[18].appl meanTxPacketSize_121 0
scalar SlicingScenario.node[18].appl meanRxThroughput_121 0
scalar SlicingScenario.node[18].appl meanTxThroughput_121 0
scalar SlicingScenario.node[18].appl rxTimeOfService_121 0
scalar SlicingScenario.node[18].appl txTimeOfService_121 0
scalar SlicingScenario.node[18].appl txPackets_40_121 0
scalar SlicingScenario.node[18].appl rxPackets_40_121 170
scalar SlicingScenario.node[18].appl rxNeighborPackets_40_121 2418
scalar SlicingScenario.node[18].appl meanDelay_40_121 0.057668000002
scalar SlicingScenario.node[18].appl meanJitter_40_121 0.000372907436
scalar SlicingScenario.node[18].appl meanRxPacketSize_40_121 1510
scalar SlicingScenario.node[18].appl meanTxPacketSize_40_121 0
scalar SlicingScenario.node[18].appl meanRxThroughput_40_121 30378.692147774
scalar SlicingScenario.node[18].appl meanTxThroughput_40_121 0
scalar SlicingScenario.node[18].appl rxTimeOfService_40_121 67.600013522981
scalar SlicingScenario.node[18].appl txTimeOfService_40_121 0
scalar SlicingScenario.node[18].nic.phy80211p busyTime 0.13831043478262
scalar SlicingScenario.node[18].nic.phy80211p ncollisions 0
scalar SlicingScenario.node[18].nic.phy80211p UnderSensitivityPackets 592
scalar SlicingScenario.node[18].nic.mac1609_4 ReceivedUnicastPackets_CCH 0
scalar SlicingScenario.node[18].nic.mac1609_4 ReceivedBroadcasts_CCH 0
scalar SlicingScenario.node[18].nic.mac1609_4 SentPackets_CCH 0
scalar SlicingScenario.node[18].nic.mac1609_4 SentAcknowledgements_CCH 0
scalar SlicingScenario.node[18].nic.mac1609_4 SNIRLostPackets_CCH 0
scalar SlicingScenario.node[18].nic.mac1609_4 RXTXLostPackets_CCH 0
scalar SlicingScenario.node[18].nic.mac1609_4 TotalLostPackets_CCH 0
scalar SlicingScenario.node[18].nic.mac1609_4 DroppedPacketsInMac_CCH 0
scalar SlicingScenario.node[18].nic.mac1609_4 TooLittleTime_CCH 0
scalar SlicingScenario.node[18].nic.mac1609_4 TimesIntoBackoff_CCH 0
scalar SlicingScenario.node[18].nic.mac1609_4 SlotsBackoff_CCH 0
scalar SlicingScenario.node[18].nic.mac1609_4 NumInternalContention_CCH 0
scalar SlicingScenario.node[18].nic.mac1609_4 RemainingPacketsInEDCA_CCH 0
scalar SlicingScenario.node[18].nic.mac1609_4 totalBusyTime_CCH 0
scalar SlicingScenario.node[18].nic.mac1609_4 ReceivedUnicastPackets_SCH 0
scalar SlicingScenario.node[18].nic.mac1609_4 ReceivedBroadcasts_SCH 6165
scalar SlicingScenario.node[18].nic.mac1609_4 SentPackets_SCH 0
scalar SlicingScenario.node[18].nic.mac1609_4 SentAcknowledgements_SCH 0
scalar SlicingScenario.node[18].nic.mac1609_4 SNIRLostPackets_SCH 0
scalar SlicingScenario.node[18].nic.mac1609_4 RXTXLostPackets_SCH 0
scalar SlicingScenario.node[18].nic.mac1609_4 TotalLostPackets_SCH 0
scalar SlicingScenario.node[18].nic.mac1609_4 DroppedPacketsInMac_SCH 0
scalar SlicingScenario.node[18].nic.mac1609_4 TooLittleTime_SCH 0
scalar SlicingScenario.node[18].nic.mac1609_4 TimesIntoBackoff_SCH 0
scalar SlicingScenario.node[18].nic.mac1609_4 SlotsBackoff_SCH 0
scalar SlicingScenario.node[18].nic.mac1609_4 NumInternalContention_SCH 0
scalar SlicingScenario.node[18].nic.mac1609_4 RemainingPacketsInEDCA_SCH 0
scalar SlicingScenario.node[18].nic.mac1609_4 totalBusyTime_SCH 12.72456
scalar SlicingScenario.node[18].veinsmobility startTime 19
scalar SlicingScenario.node[18].veinsmobility totalTime 91
scalar SlicingScenario.node[18].veinsmobility stopTime 111
scalar SlicingScenario.node[18].veinsmobility minSpeed 10.612217542264
scalar SlicingScenario.node[18].veinsmobility maxSpeed 11.108374369927
scalar SlicingScenario.node[18].veinsmobility totalDistance 980.4218801769
scalar SlicingScenario.node[18].veinsmobility totalCO2Emission 159.28756081206
scalar SlicingScenario.node[19].appl txPackets_127 0
scalar SlicingScenario.node[19].appl rxPackets_127 0
scalar SlicingScenario.node[19].appl rxNeighborPackets_127 0
scalar SlicingScenario.node[19].appl meanDelay_127 0
scalar SlicingScenario.node[19].appl meanJitter_127 0
scalar SlicingScenario.node[19].appl meanRxPacketSize_127 0
scalar SlicingScenario.node[19].appl meanTxPacketSize_127 0
scalar SlicingScenario.node[19].appl meanRxThroughput_127 0
scalar SlicingScenario.node[19].appl meanTxThroughput_127 0
scalar SlicingScenario.node[19].appl rxTimeOfService_127 0
scalar SlicingScenario.node[19].appl txTimeOfService_127 0
scalar SlicingScenario.node[19].appl txPackets_40_127 0
scalar SlicingScenario.node[19].appl rxPackets_40_127 166
scalar SlicingScenario.node[19].appl rxNeighborPackets_40_127 2465
scalar SlicingScenario.node[19].appl meanDelay_40_127 0.057227701876
scalar SlicingScenario.node[19].appl meanJitter_40_127 0.000378465544
scalar SlicingScenario.node[19].appl meanRxPacketSize_40_127 1510
scalar SlicingScenario.node[19].appl meanTxPacketSize_40_127 0
scalar SlicingScenario.node[19].appl meanRxThroughput_40_127 30383.012091485
scalar SlicingScenario.node[19].appl meanTxThroughput_40_127 0
scalar SlicingScenario.node[19].appl rxTimeOfService_40_127 66.000039560331
scalar SlicingScenario.node[19].appl txTimeOfService_40_127 0
scalar SlicingScenario.node[19].nic.phy80211p busyTime 0.13999304347827
scalar SlicingScenario.node[19].nic.phy80211p ncollisions 0
scalar SlicingScenario.node[19].nic.phy80211p UnderSensitivityPackets 595
scalar SlicingScenario.node[19].nic.mac1609_4 ReceivedUnicastPackets_CCH 0
scalar SlicingScenario.node[19].nic.mac1609_4 ReceivedBroadcasts_CCH 0
[...]
scalar SlicingScenario.rsu[0].appl rxPackets_40_211 0
scalar SlicingScenario.rsu[0].appl rxNeighborPackets_40_211 0
scalar SlicingScenario.rsu[0].appl meanDelay_40_211 0
scalar SlicingScenario.rsu[0].appl meanJitter_40_211 0
scalar SlicingScenario.rsu[0].appl meanRxPacketSize_40_211 0
scalar SlicingScenario.rsu[0].appl meanTxPacketSize_40_211 1510
scalar SlicingScenario.rsu[0].appl meanRxThroughput_40_211 0
scalar SlicingScenario.rsu[0].appl meanTxThroughput_40_211 30227.988878591
scalar SlicingScenario.rsu[0].appl rxTimeOfService_40_211 0
scalar SlicingScenario.rsu[0].appl txTimeOfService_40_211 431.6
scalar SlicingScenario.rsu[0].appl txPackets_40_217 1074
scalar SlicingScenario.rsu[0].appl rxPackets_40_217 0
scalar SlicingScenario.rsu[0].appl rxNeighborPackets_40_217 0
scalar SlicingScenario.rsu[0].appl meanDelay_40_217 0
scalar SlicingScenario.rsu[0].appl meanJitter_40_217 0
scalar SlicingScenario.rsu[0].appl meanRxPacketSize_40_217 0
scalar SlicingScenario.rsu[0].appl meanTxPacketSize_40_217 1510
scalar SlicingScenario.rsu[0].appl meanRxThroughput_40_217 0
scalar SlicingScenario.rsu[0].appl meanTxThroughput_40_217 30228.145386766
scalar SlicingScenario.rsu[0].appl rxTimeOfService_40_217 0
scalar SlicingScenario.rsu[0].appl txTimeOfService_40_217 429.2
scalar SlicingScenario.rsu[0].appl txPackets_40_229 1063
scalar SlicingScenario.rsu[0].appl rxPackets_40_229 0
scalar SlicingScenario.rsu[0].appl rxNeighborPackets_40_229 0
scalar SlicingScenario.rsu[0].appl meanDelay_40_229 0
scalar SlicingScenario.rsu[0].appl meanJitter_40_229 0
scalar SlicingScenario.rsu[0].appl meanRxPacketSize_40_229 0
scalar SlicingScenario.rsu[0].appl meanTxPacketSize_40_229 1510
scalar SlicingScenario.rsu[0].appl meanRxThroughput_40_229 0
scalar SlicingScenario.rsu[0].appl meanTxThroughput_40_229 30228.436911488
scalar SlicingScenario.rsu[0].appl rxTimeOfService_40_229 0
scalar SlicingScenario.rsu[0].appl txTimeOfService_40_229 424.8
scalar SlicingScenario.rsu[0].appl txPackets_40_235 1060
scalar SlicingScenario.rsu[0].appl rxPackets_40_235 0
scalar SlicingScenario.rsu[0].appl rxNeighborPackets_40_235 0
scalar SlicingScenario.rsu[0].appl meanDelay_40_235 0
scalar SlicingScenario.rsu[0].appl meanJitter_40_235 0
scalar SlicingScenario.rsu[0].appl meanRxPacketSize_40_235 0
scalar SlicingScenario.rsu[0].appl meanTxPacketSize_40_235 1510
scalar SlicingScenario.rsu[0].appl meanRxThroughput_40_235 0
scalar SlicingScenario.rsu[0].appl meanTxThroughput_40_235 30228.517469311
scalar SlicingScenario.rsu[0].appl rxTimeOfService_40_235 0
scalar SlicingScenario.rsu[0].appl txTimeOfService_40_235 423.6
scalar SlicingScenario.rsu[0].appl txPackets_40_241 1053
scalar SlicingScenario.rsu[0].appl rxPackets_40_241 0
scalar SlicingScenario.rsu[0].appl rxNeighborPackets_40_241 0
scalar SlicingScenario.rsu[0].appl meanDelay_40_241 0
scalar SlicingScenario.rsu[0].appl meanJitter_40_241 0
scalar SlicingScenario.rsu[0].appl meanRxPacketSize_40_241 0
scalar SlicingScenario.rsu[0].appl meanTxPacketSize_40_241 1510
scalar SlicingScenario.rsu[0].appl meanRxThroughput_40_241 0
scalar SlicingScenario.rsu[0].appl meanTxThroughput_40_241 30228.707224335
scalar SlicingScenario.rsu[0].appl rxTimeOfService_40_241 0
scalar SlicingScenario.rsu[0].appl txTimeOfService_40_241 420.8
scalar SlicingScenario.rsu[0].appl txPackets_40_247 1049
scalar SlicingScenario.rsu[0].appl rxPackets_40_247 0
scalar SlicingScenario.rsu[0].appl rxNeighborPackets_40_247 0
scalar SlicingScenario.rsu[0].appl meanDelay_40_247 0
scalar SlicingScenario.rsu[0].appl meanJitter_40_247 0
scalar SlicingScenario.rsu[0].appl meanRxPacketSize_40_247 0
scalar SlicingScenario.rsu[0].appl meanTxPacketSize_40_247 1510
scalar SlicingScenario.rsu[0].appl meanRxThroughput_40_247 0
scalar SlicingScenario.rsu[0].appl meanTxThroughput_40_247 30228.816793893
scalar SlicingScenario.rsu[0].appl rxTimeOfService_40_247 0
scalar SlicingScenario.rsu[0].appl txTimeOfService_40_247 419.2
scalar SlicingScenario.rsu[0].appl txPackets_41_13 1244
scalar SlicingScenario.rsu[0].appl rxPackets_41_13 0
scalar SlicingScenario.rsu[0].appl rxNeighborPackets_41_13 0
scalar SlicingScenario.rsu[0].appl meanDelay_41_13 0
scalar SlicingScenario.rsu[0].appl meanJitter_41_13 0
scalar SlicingScenario.rsu[0].appl meanRxPacketSize_41_13 0
scalar SlicingScenario.rsu[0].appl meanTxPacketSize_41_13 1510
scalar SlicingScenario.rsu[0].appl meanRxThroughput_41_13 0
scalar SlicingScenario.rsu[0].appl meanTxThroughput_41_13 30224.296057924
scalar SlicingScenario.rsu[0].appl rxTimeOfService_41_13 0
scalar SlicingScenario.rsu[0].appl txTimeOfService_41_13 497.2
scalar SlicingScenario.rsu[0].appl txPackets_41_19 1239
scalar SlicingScenario.rsu[0].appl rxPackets_41_19 0
scalar SlicingScenario.rsu[0].appl rxNeighborPackets_41_19 0
scalar SlicingScenario.rsu[0].appl meanDelay_41_19 0
scalar SlicingScenario.rsu[0].appl meanJitter_41_19 0
scalar SlicingScenario.rsu[0].appl meanRxPacketSize_41_19 0
scalar SlicingScenario.rsu[0].appl meanTxPacketSize_41_19 1510
scalar SlicingScenario.rsu[0].appl meanRxThroughput_41_19 0
scalar SlicingScenario.rsu[0].appl meanTxThroughput_41_19 30224.394184168
scalar SlicingScenario.rsu[0].appl rxTimeOfService_41_19 0
scalar SlicingScenario.rsu[0].appl txTimeOfService_41_19 495.2
scalar SlicingScenario.rsu[0].appl txPackets_41_25 1235
scalar SlicingScenario.rsu[0].appl rxPackets_41_25 0
scalar SlicingScenario.rsu[0].appl rxNeighborPackets_41_25 0
scalar SlicingScenario.rsu[0].appl meanDelay_41_25 0
scalar SlicingScenario.rsu[0].appl meanJitter_41_25 0
scalar SlicingScenario.rsu[0].appl meanRxPacketSize_41_25 0
scalar SlicingScenario.rsu[0].appl meanTxPacketSize_41_25 1510
scalar SlicingScenario.rsu[0].appl meanRxThroughput_41_25 0
scalar SlicingScenario.rsu[0].appl meanTxThroughput_41_25 30224.473257699
scalar SlicingScenario.rsu[0].appl rxTimeOfService_41_25 0
scalar SlicingScenario.rsu[0].appl txTimeOfService_41_25 493.6
scalar SlicingScenario.rsu[0].appl txPackets_41_37 1223
scalar SlicingScenario.rsu[0].appl rxPackets_41_37 0
scalar SlicingScenario.rsu[0].appl rxNeighborPackets_41_37 0
scalar SlicingScenario.rsu[0].appl meanDelay_41_37 0
scalar SlicingScenario.rsu[0].appl meanJitter_41_37 0
scalar SlicingScenario.rsu[0].appl meanRxPacketSize_41_37 0
scalar SlicingScenario.rsu[0].appl meanTxPacketSize_41_37 1510
scalar SlicingScenario.rsu[0].appl meanRxThroughput_41_37 0
scalar SlicingScenario.rsu[0].appl meanTxThroughput_41_37 30224.713584288
scalar SlicingScenario.rsu[0].appl rxTimeOfService_41_37 0
scalar SlicingScenario.rsu[0].appl txTimeOfService_41_37 488.8
scalar SlicingScenario.rsu[0].appl txPackets_41_43 1220
scalar SlicingScenario.rsu[0].appl rxPackets_41_43 0
scalar SlicingScenario.rsu[0].appl rxNeighborPackets_41_43 0
scalar SlicingScenario.rsu[0].appl meanDelay_41_43 0
scalar SlicingScenario.rsu[0].appl meanJitter_41_43 0
scalar SlicingScenario.rsu[0].appl meanRxPacketSize_41_43 0
scalar SlicingScenario.rsu[0].appl meanTxPacketSize_41_43 1510
scalar SlicingScenario.rsu[0].appl meanRxThroughput_41_43 0
scalar SlicingScenario.rsu[0].appl meanTxThroughput_41_43 30224.77440525
scalar SlicingScenario.rsu[0].appl rxTimeOfService_41_43 0
scalar SlicingScenario.rsu[0].appl txTimeOfService_41_43 487.6
scalar SlicingScenario.rsu[0].appl txPackets_41_49 1215
scalar SlicingScenario.rsu[0].appl rxPackets_41_49 0
scalar SlicingScenario.rsu[0].appl rxNeighborPackets_41_49 0
scalar SlicingScenario.rsu[0].appl meanDelay_41_49 0
scalar SlicingScenario.rsu[0].appl meanJitter_41_49 0
scalar SlicingScenario.rsu[0].appl meanRxPacketSize_41_49 0
scalar SlicingScenario.rsu[0].appl meanTxPacketSize_41_49 1510
scalar SlicingScenario.rsu[0].appl meanRxThroughput_41_49 0
scalar SlicingScenario.rsu[0].appl meanTxThroughput_41_49 30224.876441516
scalar SlicingScenario.rsu[0].appl rxTimeOfService_41_49 0
scalar SlicingScenario.rsu[0].appl txTimeOfService_41_49 485.6
scalar SlicingScenario.rsu[0].appl txPackets_41_61 1204
scalar SlicingScenario.rsu[0].appl rxPackets_41_61 0
scalar SlicingScenario.rsu[0].appl rxNeighborPackets_41_61 0
scalar SlicingScenario.rsu[0].appl meanDelay_41_61 0
scalar SlicingScenario.rsu[0].appl meanJitter_41_61 0
scalar SlicingScenario.rsu[0].appl meanRxPacketSize_41_61 0
scalar SlicingScenario.rsu[0].appl meanTxPacketSize_41_61 1510
scalar SlicingScenario.rsu[0].appl meanRxThroughput_41_61 0
scalar SlicingScenario.rsu[0].appl meanTxThroughput_41_61 30225.103906899
scalar SlicingScenario.rsu[0].appl rxTimeOfService_41_61 0
scalar SlicingScenario.rsu[0].appl txTimeOfService_41_61 481.2
scalar SlicingScenario.rsu[0].appl txPackets_41_67 1195
scalar SlicingScenario.rsu[0].appl rxPackets_41_67 0
scalar SlicingScenario.rsu[0].appl rxNeighborPackets_41_67 0
scalar SlicingScenario.rsu[0].appl meanDelay_41_67 0
scalar SlicingScenario.rsu[0].appl meanJitter_41_67 0
scalar SlicingScenario.rsu[0].appl meanRxPacketSize_41_67 0
scalar SlicingScenario.rsu[0].appl meanTxPacketSize_41_67 1510
scalar SlicingScenario.rsu[0].appl meanRxThroughput_41_67 0
scalar SlicingScenario.rsu[0].appl meanTxThroughput_41_67 30225.293132328
scalar SlicingScenario.rsu[0].appl rxTimeOfService_41_67 0
scalar SlicingScenario.rsu[0].appl txTimeOfService_41_67 477.6
scalar SlicingScenario.rsu[0].appl txPackets_41_73 1189
scalar SlicingScenario.rsu[0].appl rxPackets_41_73 0
scalar SlicingScenario.rsu[0].appl rxNeighborPackets_41_73 0
scalar SlicingScenario.rsu[0].appl meanDelay_41_73 0
scalar SlicingScenario.rsu[0].appl meanJitter_41_73 0
scalar SlicingScenario.rsu[0].appl meanRxPacketSize_41_73 0
scalar SlicingScenario.rsu[0].appl meanTxPacketSize_41_73 1510
scalar SlicingScenario.rsu[0].appl meanRxThroughput_41_73 0
scalar SlicingScenario.rsu[0].appl meanTxThroughput_41_73 30225.420875421
scalar SlicingScenario.rsu[0].appl rxTimeOfService_41_73 0
scalar SlicingScenario.rsu[0].appl txTimeOfService_41_73 475.2
scalar SlicingScenario.rsu[0].appl txPackets_41_91 1179
scalar SlicingScenario.rsu[0].appl rxPackets_41_91 0
scalar SlicingScenario.rsu[0].appl rxNeighborPackets_41_91 0
scalar SlicingScenario.rsu[0].appl meanDelay_41_91 0
scalar SlicingScenario.rsu[0].appl meanJitter_41_91 0
scalar SlicingScenario.rsu[0].appl meanRxPacketSize_41_91 0
scalar SlicingScenario.rsu[0].appl meanTxPacketSize_41_91 1510
scalar SlicingScenario.rsu[0].appl meanRxThroughput_41_91 0
scalar SlicingScenario.rsu[0].appl meanTxThroughput_41_91 30225.636672326
scalar SlicingScenario.rsu[0].appl rxTimeOfService_41_91 0
scalar SlicingScenario.rsu[0].appl txTimeOfService_41_91 471.2
scalar SlicingScenario.rsu[0].appl txPackets_41_103 1168
scalar SlicingScenario.rsu[0].appl rxPackets_41_103 0
scalar SlicingScenario.rsu[0].appl rxNeighborPackets_41_103 0
scalar SlicingScenario.rsu[0].appl meanDelay_41_103 0
scalar SlicingScenario.rsu[0].appl meanJitter_41_103 0
scalar SlicingScenario.rsu[0].appl meanRxPacketSize_41_103 0
scalar SlicingScenario.rsu[0].appl meanTxPacketSize_41_103 1510
scalar SlicingScenario.rsu[0].appl meanRxThroughput_41_103 0
scalar SlicingScenario.rsu[0].appl meanTxThroughput_41_103 30225.87832048
scalar SlicingScenario.rsu[0].appl rxTimeOfService_41_103 0
scalar SlicingScenario.rsu[0].appl txTimeOfService_41_103 466.8
scalar SlicingScenario.rsu[0].appl txPackets_41_109 1165
scalar SlicingScenario.rsu[0].appl rxPackets_41_109 0
scalar SlicingScenario.rsu[0].appl rxNeighborPackets_41_109 0
scalar SlicingScenario.rsu[0].appl meanDelay_41_109 0
scalar SlicingScenario.rsu[0].appl meanJitter_41_109 0
scalar SlicingScenario.rsu[0].appl meanRxPacketSize_41_109 0
scalar SlicingScenario.rsu[0].appl meanTxPacketSize_41_109 1510
scalar SlicingScenario.rsu[0].appl meanRxThroughput_41_109 0
scalar SlicingScenario.rsu[0].appl meanTxThroughput_41_109 30225.945017182
scalar SlicingScenario.rsu[0].appl rxTimeOfService_41_109 0
scalar SlicingScenario.rsu[0].appl txTimeOfService_41_109 465.6
scalar SlicingScenario.rsu[0].appl txPackets_41_115 1160
scalar SlicingScenario.rsu[0].appl rxPackets_41_115 0
scalar SlicingScenario.rsu[0].appl rxNeighborPackets_41_115 0
scalar SlicingScenario.rsu[0].appl meanDelay_41_115 0
scalar SlicingScenario.rsu[0].appl meanJitter_41_115 0
scalar SlicingScenario.rsu[0].appl meanRxPacketSize_41_115 0
scalar SlicingScenario.rsu[0].appl meanTxPacketSize_41_115 1510
scalar SlicingScenario.rsu[0].appl meanRxThroughput_41_115 0
scalar SlicingScenario.rsu[0].appl meanTxThroughput_41_115 30226.056945643
scalar SlicingScenario.rsu[0].appl rxTimeOfService_41_115 0
scalar SlicingScenario.rsu[0].appl txTimeOfService_41_115 463.6
scalar SlicingScenario.rsu[0].appl txPackets_41_133 1144
scalar SlicingScenario.rsu[0].appl rxPackets_41_133 0
scalar SlicingScenario.rsu[0].appl rxNeighborPackets_41_133 0
scalar SlicingScenario.rsu[0].appl meanDelay_41_133 0
scalar SlicingScenario.rsu[0].appl meanJitter_41_133 0
scalar SlicingScenario.rsu[0].appl meanRxPacketSize_41_133 0
scalar SlicingScenario.rsu[0].appl meanTxPacketSize_41_133 1510
scalar SlicingScenario.rsu[0].appl meanRxThroughput_41_133 0
scalar SlicingScenario.rsu[0].appl meanTxThroughput_41_133 30226.421697288
scalar SlicingScenario.rsu[0].appl rxTimeOfService_41_133 0
scalar SlicingScenario.rsu[0].appl txTimeOfService_41_133 457.2
scalar SlicingScenario.rsu[0].appl txPackets_41_151 1129
scalar SlicingScenario.rsu[0].appl rxPackets_41_151 0
scalar SlicingScenario.rsu[0].appl rxNeighborPackets_41_151 0
scalar SlicingScenario.rsu[0].appl meanDelay_41_151 0
scalar SlicingScenario.rsu[0].appl meanJitter_41_151 0
scalar SlicingScenario.rsu[0].appl meanRxPacketSize_41_151 0
scalar SlicingScenario.rsu[0].appl meanTxPacketSize_41_151 1510
scalar SlicingScenario.rsu[0].appl meanRxThroughput_41_151 0
scalar SlicingScenario.rsu[0].appl meanTxThroughput_41_151 30226.773049645
scalar SlicingScenario.rsu[0].appl rxTimeOfService_41_151 0
scalar SlicingScenario.rsu[0].appl txTimeOfService_41_151 451.2
scalar SlicingScenario.rsu[0].appl txPackets_41_157 1123
scalar SlicingScenario.rsu[0].appl rxPackets_41_157 0
scalar SlicingScenario.rsu[0].appl rxNeighborPackets_41_157 0
scalar SlicingScenario.rsu[0].appl meanDelay_41_157 0
scalar SlicingScenario.rsu[0].appl meanJitter_41_157 0
scalar SlicingScenario.rsu[0].appl meanRxPacketSize_41_157 0
scalar SlicingScenario.rsu[0].appl meanTxPacketSize_41_157 1510
scalar SlicingScenario.rsu[0].appl meanRxThroughput_41_157 0
scalar SlicingScenario.rsu[0].appl meanTxThroughput_41_157 30226.916221034
scalar SlicingScenario.rsu[0].appl rxTimeOfService_41_157 0
scalar SlicingScenario.rsu[0].appl txTimeOfService_41_157 448.8
scalar SlicingScenario.rsu[0].appl txPackets_41_163 1118
scalar SlicingScenario.rsu[0].appl rxPackets_41_163 0
scalar SlicingScenario.rsu[0].appl rxNeighborPackets_41_163 0
scalar SlicingScenario.rsu[0].appl meanDelay_41_163 0
scalar SlicingScenario.rsu[0].appl meanJitter_41_163 0
scalar SlicingScenario.rsu[0].appl meanRxPacketSize_41_163 0
scalar SlicingScenario.rsu[0].appl meanTxPacketSize_41_163 1510
scalar SlicingScenario.rsu[0].appl meanRxThroughput_41_163 0
scalar SlicingScenario.rsu[0].appl meanTxThroughput_41_163 30227.036705461
scalar SlicingScenario.rsu[0].appl rxTimeOfService_41_163 0
scalar SlicingScenario.rsu[0].appl txTimeOfService_41_163 446.8
scalar SlicingScenario.rsu[0].appl txPackets_41_181 1103
scalar SlicingScenario.rsu[0].appl rxPackets_41_181 0
scalar SlicingScenario.rsu[0].appl rxNeighborPackets_41_181 0
scalar SlicingScenario.rsu[0].appl meanDelay_41_181 0
scalar SlicingScenario.rsu[0].appl meanJitter_41_181 0
scalar SlicingScenario.rsu[0].appl meanRxPacketSize_41_181 0
scalar SlicingScenario.rsu[0].appl meanTxPacketSize_41_181 1510
scalar SlicingScenario.rsu[0].appl meanRxThroughput_41_181 0
scalar SlicingScenario.rsu[0].appl meanTxThroughput_41_181 30227.404718693
scalar SlicingScenario.rsu[0].appl rxTimeOfService_41_181 0
scalar SlicingScenario.rsu[0].appl txTimeOfService_41_181 440.8
scalar SlicingScenario.rsu[0].appl txPackets_41_199 1090
scalar SlicingScenario.rsu[0].appl rxPackets_41_199 0
scalar SlicingScenario.rsu[0].appl rxNeighborPackets_41_199 0
scalar SlicingScenario.rsu[0].appl meanDelay_41_199 0
scalar SlicingScenario.rsu[0].appl meanJitter_41_199 0
scalar SlicingScenario.rsu[0].appl meanRxPacketSize_41_199 0
scalar SlicingScenario.rsu[0].appl meanTxPacketSize_41_199 1510
scalar SlicingScenario.rsu[0].appl meanRxThroughput_41_199 0
scalar SlicingScenario.rsu[0].appl meanTxThroughput_41_199 30227.731864096
scalar SlicingScenario.rsu[0].appl rxTimeOfService_41_199 0
scalar SlicingScenario.rsu[0].appl txTimeOfService_41_199 435.6
scalar SlicingScenario.rsu[0].appl txPackets_41_205 1085
scalar SlicingScenario.rsu[0].appl rxPackets_41_205 0
scalar SlicingScenario.rsu[0].appl rxNeighborPackets_41_205 0
scalar SlicingScenario.rsu[0].appl meanDelay_41_205 0
scalar SlicingScenario.rsu[0].appl meanJitter_41_205 0
scalar SlicingScenario.rsu[0].appl meanRxPacketSize_41_205 0
scalar SlicingScenario.rsu[0].appl meanTxPacketSize_41_205 1510
scalar SlicingScenario.rsu[0].appl meanRxThroughput_41_205 0
scalar SlicingScenario.rsu[0].appl meanTxThroughput_41_205 30227.859778598
scalar SlicingScenario.rsu[0].appl rxTimeOfService_41_205 0
scalar SlicingScenario.rsu[0].appl txTimeOfService_41_205 433.6
scalar SlicingScenario.rsu[0].appl txPackets_41_223 1068
scalar SlicingScenario.rsu[0].appl rxPackets_41_223 0
scalar SlicingScenario.rsu[0].appl rxNeighborPackets_41_223 0
scalar SlicingScenario.rsu[0].appl meanDelay_41_223 0
scalar SlicingScenario.rsu[0].appl meanJitter_41_223 0
scalar SlicingScenario.rsu[0].appl meanRxPacketSize_41_223 0
scalar SlicingScenario.rsu[0].appl meanTxPacketSize_41_223 1510
scalar SlicingScenario.rsu[0].appl meanRxThroughput_41_223 0
scalar SlicingScenario.rsu[0].appl meanTxThroughput_41_223 30228.303655108
scalar SlicingScenario.rsu[0].appl rxTimeOfService_41_223 0
scalar SlicingScenario.rsu[0].appl txTimeOfService_41_223 426.8
scalar SlicingScenario.rsu[0].nic.phy80211p busyTime 0
scalar SlicingScenario.rsu[0].nic.phy80211p ncollisions 0
scalar SlicingScenario.rsu[0].nic.phy80211p UnderSensitivityPackets 0
scalar SlicingScenario.rsu[0].nic.mac1609_4 ReceivedUnicastPackets_CCH 0
scalar SlicingScenario.rsu[0].nic.mac1609_4 ReceivedBroadcasts_CCH 0
scalar SlicingScenario.rsu[0].nic.mac1609_4 SentPackets_CCH 0
scalar SlicingScenario.rsu[0].nic.mac1609_4 SentAcknowledgements_CCH 0
scalar SlicingScenario.rsu[0].nic.mac1609_4 SNIRLostPackets_CCH 0
scalar SlicingScenario.rsu[0].nic.mac1609_4 RXTXLostPackets_CCH 0
scalar SlicingScenario.rsu[0].nic.mac1609_4 TotalLostPackets_CCH 0
scalar SlicingScenario.rsu[0].nic.mac1609_4 DroppedPacketsInMac_CCH 0
scalar SlicingScenario.rsu[0].nic.mac1609_4 TooLittleTime_CCH 0
scalar SlicingScenario.rsu[0].nic.mac1609_4 TimesIntoBackoff_CCH 0
scalar SlicingScenario.rsu[0].nic.mac1609_4 SlotsBackoff_CCH 0
scalar SlicingScenario.rsu[0].nic.mac1609_4 NumInternalContention_CCH 0
scalar SlicingScenario.rsu[0].nic.mac1609_4 RemainingPacketsInEDCA_CCH 0
scalar SlicingScenario.rsu[0].nic.mac1609_4 totalBusyTime_CCH 0
scalar SlicingScenario.rsu[0].nic.mac1609_4 ReceivedUnicastPackets_SCH 0
scalar SlicingScenario.rsu[0].nic.mac1609_4 ReceivedBroadcasts_SCH 0
scalar SlicingScenario.rsu[0].nic.mac1609_4 SentPackets_SCH 45847
scalar SlicingScenario.rsu[0].nic.mac1609_4 SentAcknowledgements_SCH 0
scalar SlicingScenario.rsu[0].nic.mac1609_4 SNIRLostPackets_SCH 0
scalar SlicingScenario.rsu[0].nic.mac1609_4 RXTXLostPackets_SCH 0
scalar SlicingScenario.rsu[0].nic.mac1609_4 TotalLostPackets_SCH 0
scalar SlicingScenario.rsu[0].nic.mac1609_4 DroppedPacketsInMac_SCH 0
scalar SlicingScenario.rsu[0].nic.mac1609_4 TooLittleTime_SCH 43789
scalar SlicingScenario.rsu[0].nic.mac1609_4 TimesIntoBackoff_SCH 49485
scalar SlicingScenario.rsu[0].nic.mac1609_4 SlotsBackoff_SCH 160350
scalar SlicingScenario.rsu[0].nic.mac1609_4 NumInternalContention_SCH 0
scalar SlicingScenario.rsu[0].nic.mac1609_4 RemainingPacketsInEDCA_SCH 1
scalar SlicingScenario.rsu[0].nic.mac1609_4 totalBusyTime_SCH 94.674055

