version 2
run General-232-20190223-14:32:45-12012
attr configname General
attr datetime 20190223-14:32:45
attr experiment General
attr inifile omnetpp.ini
attr iterationvars "$vehicles=40, $msgSizeA=1500B, $serviceMsgInterval=1s"
attr iterationvarsf vehicles=40,msgSizeA=1500B,serviceMsgInterval=1s-
attr measurement "$vehicles=40, $msgSizeA=1500B, $serviceMsgInterval=1s"
attr network com.liborio.slicing.SlicingScenario
attr processid 12012
attr repetition 2
attr replication #2
attr resultdir results
attr runnumber 232
attr seedset 2
itervar msgSizeA 1500B
itervar serviceMsgInterval 1s
itervar vehicles 40
param **.debug false
param **.coreDebug false
param *.playgroundSizeX 1200m
param *.playgroundSizeY 1200m
param *.playgroundSizeZ 50m
param *.annotations.draw true
param *.manager.updateInterval 1s
param *.manager.host "\"localhost\""
param *.manager.port 9999
param *.manager.autoShutdown true
param *.manager.launchConfig "xmldoc(\"highway-\"+string(40)+\".launchd.xml\")"
param *.connectionManager.sendDirect true
param *.connectionManager.maxInterfDist 2600m
param *.connectionManager.drawMaxIntfDist false
param *.rsu[*].applType "\"RSUApp\""
param *.rsu[*].appl.headerLength "80 bit"
param *.rsu[*].appl.sendBeacons false
param *.rsu[*].appl.dataOnSch true
param *.rsu[*].appl.beaconInterval 1s
param *.rsu[*].appl.beaconUserPriority 7
param *.rsu[*].appl.dataUserPriority 5
param *.rsu[*].appl.entMsgADataLengthBytes 1500B
param *.rsu[*].appl.entMsgAUserPriority 4
param *.rsu[*].appl.entMsgAInterval 1s
param *.rsu[*].appl.entMsgBDataLengthBytes 1500B
param *.rsu[*].appl.entMsgBUserPriority 4
param *.rsu[*].appl.entMsgBInterval 1s
param *.rsu[*].nic.mac1609_4.useServiceChannel true
param *.rsu[*].nic.mac1609_4.txPower 20mW
param *.rsu[*].nic.mac1609_4.bitrate 6Mbps
param *.rsu[*].nic.phy80211p.sensitivity -90.00dBm
param *.rsu[0].mobility.x 515.0
param *.rsu[0].mobility.y 25.0
param *.rsu[0].mobility.z 3
param *.node[*].applType "\"VehApp\""
param *.node[*].appl.headerLength "80 bit"
param *.node[*].appl.sendBeacons false
param *.node[*].appl.dataOnSch true
param *.node[*].appl.beaconInterval 1s
param *.node[*].appl.wsaInterval 1s
param *.node[*].appl.entMsgADataLengthBits 1500B
param *.node[*].appl.entMsgAUserPriority 4
param *.node[*].appl.entMsgAInterval 1s
param *.node[*].appl.entMsgBDataLengthBits 1500B
param *.node[*].appl.entMsgBUserPriority 4
param *.node[*].appl.entMsgBInterval 1s
param *.node[*].nic.mac1609_4.useServiceChannel true
param *.node[*].nic.mac1609_4.txPower 20mW
param *.node[*].nic.mac1609_4.bitrate 6Mbps
param *.node[*].nic.phy80211p.sensitivity -90.00dBm
param *.node[*].veinsmobilityType.debug true
param *.node[*].veinsmobility.x 0
param *.node[*].veinsmobility.y 0
param *.node[*].veinsmobility.z 1.895
param *.**.nic.phy80211p.useThermalNoise true
param *.**.nic.phy80211p.thermalNoise -110dBm
param *.**.nic.phy80211p.decider "xmldoc(\"config.xml\")"
param *.**.nic.phy80211p.analogueModels "xmldoc(\"config.xml\")"
param *.**.nic.phy80211p.usePropagationDelay true
param *.**.nic.phy80211p.antenna "xmldoc(\"antenna.xml\", \"/root/Antenna[@id='monopole']\")"
param *.**.nic.phy80211p.collectCollisionStatistics true
param *.**.nic.phy80211p.allowTxDuringRx false

scalar SlicingScenario.node[0].appl txPackets_13 0
scalar SlicingScenario.node[0].appl rxPackets_13 0
scalar SlicingScenario.node[0].appl rxNeighborPackets_13 0
scalar SlicingScenario.node[0].appl meanDelay_13 0
scalar SlicingScenario.node[0].appl meanJitter_13 0
scalar SlicingScenario.node[0].appl meanRxPacketSize_13 0
scalar SlicingScenario.node[0].appl meanTxPacketSize_13 0
scalar SlicingScenario.node[0].appl meanRxThroughput_13 0
scalar SlicingScenario.node[0].appl meanTxThroughput_13 0
scalar SlicingScenario.node[0].appl rxTimeOfService_13 0
scalar SlicingScenario.node[0].appl txTimeOfService_13 0
scalar SlicingScenario.node[0].appl txPackets_41_13 0
scalar SlicingScenario.node[0].appl rxPackets_41_13 83
scalar SlicingScenario.node[0].appl rxNeighborPackets_41_13 909
scalar SlicingScenario.node[0].appl meanDelay_41_13 0.002074621804
scalar SlicingScenario.node[0].appl meanJitter_41_13 2.5477066e-05
scalar SlicingScenario.node[0].appl meanRxPacketSize_41_13 1510
scalar SlicingScenario.node[0].appl meanTxPacketSize_41_13 0
scalar SlicingScenario.node[0].appl meanRxThroughput_41_13 12227.318417297
scalar SlicingScenario.node[0].appl meanTxThroughput_41_13 0
scalar SlicingScenario.node[0].appl rxTimeOfService_41_13 81.999990985894
scalar SlicingScenario.node[0].appl txTimeOfService_41_13 0
scalar SlicingScenario.node[0].nic.phy80211p busyTime 0.041975478260868
scalar SlicingScenario.node[0].nic.phy80211p ncollisions 0
scalar SlicingScenario.node[0].nic.phy80211p UnderSensitivityPackets 204
scalar SlicingScenario.node[0].nic.mac1609_4 ReceivedUnicastPackets_CCH 0
scalar SlicingScenario.node[0].nic.mac1609_4 ReceivedBroadcasts_CCH 0
scalar SlicingScenario.node[0].nic.mac1609_4 SentPackets_CCH 0
scalar SlicingScenario.node[0].nic.mac1609_4 SentAcknowledgements_CCH 0
scalar SlicingScenario.node[0].nic.mac1609_4 SNIRLostPackets_CCH 0
scalar SlicingScenario.node[0].nic.mac1609_4 RXTXLostPackets_CCH 0
scalar SlicingScenario.node[0].nic.mac1609_4 TotalLostPackets_CCH 0
scalar SlicingScenario.node[0].nic.mac1609_4 DroppedPacketsInMac_CCH 0
scalar SlicingScenario.node[0].nic.mac1609_4 TooLittleTime_CCH 0
scalar SlicingScenario.node[0].nic.mac1609_4 TimesIntoBackoff_CCH 0
scalar SlicingScenario.node[0].nic.mac1609_4 SlotsBackoff_CCH 0
scalar SlicingScenario.node[0].nic.mac1609_4 NumInternalContention_CCH 0
scalar SlicingScenario.node[0].nic.mac1609_4 RemainingPacketsInEDCA_CCH 0
scalar SlicingScenario.node[0].nic.mac1609_4 totalBusyTime_CCH 0
scalar SlicingScenario.node[0].nic.mac1609_4 ReceivedUnicastPackets_SCH 0
scalar SlicingScenario.node[0].nic.mac1609_4 ReceivedBroadcasts_SCH 1871
scalar SlicingScenario.node[0].nic.mac1609_4 SentPackets_SCH 0
scalar SlicingScenario.node[0].nic.mac1609_4 SentAcknowledgements_SCH 0
scalar SlicingScenario.node[0].nic.mac1609_4 SNIRLostPackets_SCH 0
scalar SlicingScenario.node[0].nic.mac1609_4 RXTXLostPackets_SCH 0
scalar SlicingScenario.node[0].nic.mac1609_4 TotalLostPackets_SCH 0
scalar SlicingScenario.node[0].nic.mac1609_4 DroppedPacketsInMac_SCH 0
scalar SlicingScenario.node[0].nic.mac1609_4 TooLittleTime_SCH 0
scalar SlicingScenario.node[0].nic.mac1609_4 TimesIntoBackoff_SCH 0
scalar SlicingScenario.node[0].nic.mac1609_4 SlotsBackoff_SCH 0
scalar SlicingScenario.node[0].nic.mac1609_4 NumInternalContention_SCH 0
scalar SlicingScenario.node[0].nic.mac1609_4 RemainingPacketsInEDCA_SCH 0
scalar SlicingScenario.node[0].nic.mac1609_4 totalBusyTime_SCH 3.861744
scalar SlicingScenario.node[0].veinsmobility startTime 1
scalar SlicingScenario.node[0].veinsmobility totalTime 91
scalar SlicingScenario.node[0].veinsmobility stopTime 93
scalar SlicingScenario.node[0].veinsmobility minSpeed 10.614104640451
scalar SlicingScenario.node[0].veinsmobility maxSpeed 11.103841007003
scalar SlicingScenario.node[0].veinsmobility totalDistance 979.91711544112
scalar SlicingScenario.node[0].veinsmobility totalCO2Emission 159.06904123802
scalar SlicingScenario.node[1].appl txPackets_19 0
scalar SlicingScenario.node[1].appl rxPackets_19 0
scalar SlicingScenario.node[1].appl rxNeighborPackets_19 0
scalar SlicingScenario.node[1].appl meanDelay_19 0
scalar SlicingScenario.node[1].appl meanJitter_19 0
scalar SlicingScenario.node[1].appl meanRxPacketSize_19 0
scalar SlicingScenario.node[1].appl meanTxPacketSize_19 0
scalar SlicingScenario.node[1].appl meanRxThroughput_19 0
scalar SlicingScenario.node[1].appl meanTxThroughput_19 0
scalar SlicingScenario.node[1].appl rxTimeOfService_19 0
scalar SlicingScenario.node[1].appl txTimeOfService_19 0
scalar SlicingScenario.node[1].appl txPackets_41_19 0
scalar SlicingScenario.node[1].appl rxPackets_41_19 83
scalar SlicingScenario.node[1].appl rxNeighborPackets_41_19 926
scalar SlicingScenario.node[1].appl meanDelay_41_19 0.002071403819
scalar SlicingScenario.node[1].appl meanJitter_41_19 2.5719459e-05
scalar SlicingScenario.node[1].appl meanRxPacketSize_41_19 1510
scalar SlicingScenario.node[1].appl meanTxPacketSize_41_19 0
scalar SlicingScenario.node[1].appl meanRxThroughput_41_19 12227.317971349
scalar SlicingScenario.node[1].appl meanTxThroughput_41_19 0
scalar SlicingScenario.node[1].appl rxTimeOfService_41_19 81.999993976549
scalar SlicingScenario.node[1].appl txTimeOfService_41_19 0
scalar SlicingScenario.node[1].nic.phy80211p busyTime 0.042827999999999
scalar SlicingScenario.node[1].nic.phy80211p ncollisions 0
scalar SlicingScenario.node[1].nic.phy80211p UnderSensitivityPackets 206
scalar SlicingScenario.node[1].nic.mac1609_4 ReceivedUnicastPackets_CCH 0
scalar SlicingScenario.node[1].nic.mac1609_4 ReceivedBroadcasts_CCH 0
scalar SlicingScenario.node[1].nic.mac1609_4 SentPackets_CCH 0
scalar SlicingScenario.node[1].nic.mac1609_4 SentAcknowledgements_CCH 0
scalar SlicingScenario.node[1].nic.mac1609_4 SNIRLostPackets_CCH 0
scalar SlicingScenario.node[1].nic.mac1609_4 RXTXLostPackets_CCH 0
scalar SlicingScenario.node[1].nic.mac1609_4 TotalLostPackets_CCH 0
scalar SlicingScenario.node[1].nic.mac1609_4 DroppedPacketsInMac_CCH 0
scalar SlicingScenario.node[1].nic.mac1609_4 TooLittleTime_CCH 0
scalar SlicingScenario.node[1].nic.mac1609_4 TimesIntoBackoff_CCH 0
scalar SlicingScenario.node[1].nic.mac1609_4 SlotsBackoff_CCH 0
scalar SlicingScenario.node[1].nic.mac1609_4 NumInternalContention_CCH 0
scalar SlicingScenario.node[1].nic.mac1609_4 RemainingPacketsInEDCA_CCH 0
scalar SlicingScenario.node[1].nic.mac1609_4 totalBusyTime_CCH 0
scalar SlicingScenario.node[1].nic.mac1609_4 ReceivedUnicastPackets_SCH 0
scalar SlicingScenario.node[1].nic.mac1609_4 ReceivedBroadcasts_SCH 1909
scalar SlicingScenario.node[1].nic.mac1609_4 SentPackets_SCH 0
scalar SlicingScenario.node[1].nic.mac1609_4 SentAcknowledgements_SCH 0
scalar SlicingScenario.node[1].nic.mac1609_4 SNIRLostPackets_SCH 0
scalar SlicingScenario.node[1].nic.mac1609_4 RXTXLostPackets_SCH 0
scalar SlicingScenario.node[1].nic.mac1609_4 TotalLostPackets_SCH 0
scalar SlicingScenario.node[1].nic.mac1609_4 DroppedPacketsInMac_SCH 0
scalar SlicingScenario.node[1].nic.mac1609_4 TooLittleTime_SCH 0
scalar SlicingScenario.node[1].nic.mac1609_4 TimesIntoBackoff_SCH 0
scalar SlicingScenario.node[1].nic.mac1609_4 SlotsBackoff_SCH 0
scalar SlicingScenario.node[1].nic.mac1609_4 NumInternalContention_SCH 0
scalar SlicingScenario.node[1].nic.mac1609_4 RemainingPacketsInEDCA_SCH 0
scalar SlicingScenario.node[1].nic.mac1609_4 totalBusyTime_SCH 3.940176
scalar SlicingScenario.node[1].veinsmobility startTime 2
scalar SlicingScenario.node[1].veinsmobility totalTime 91
scalar SlicingScenario.node[1].veinsmobility stopTime 94
scalar SlicingScenario.node[1].veinsmobility minSpeed 10.610339987571
scalar SlicingScenario.node[1].veinsmobility maxSpeed 11.109684658716
scalar SlicingScenario.node[1].veinsmobility totalDistance 977.00226406398
scalar SlicingScenario.node[1].veinsmobility totalCO2Emission 158.71667840889
scalar SlicingScenario.node[2].appl txPackets_25 0
scalar SlicingScenario.node[2].appl rxPackets_25 0
scalar SlicingScenario.node[2].appl rxNeighborPackets_25 0
scalar SlicingScenario.node[2].appl meanDelay_25 0
scalar SlicingScenario.node[2].appl meanJitter_25 0
scalar SlicingScenario.node[2].appl meanRxPacketSize_25 0
scalar SlicingScenario.node[2].appl meanTxPacketSize_25 0
scalar SlicingScenario.node[2].appl meanRxThroughput_25 0
scalar SlicingScenario.node[2].appl meanTxThroughput_25 0
scalar SlicingScenario.node[2].appl rxTimeOfService_25 0
scalar SlicingScenario.node[2].appl txTimeOfService_25 0
scalar SlicingScenario.node[2].appl txPackets_41_25 0
scalar SlicingScenario.node[2].appl rxPackets_41_25 83
scalar SlicingScenario.node[2].appl rxNeighborPackets_41_25 958
scalar SlicingScenario.node[2].appl meanDelay_41_25 0.002073806827
scalar SlicingScenario.node[2].appl meanJitter_41_25 2.557072e-05
scalar SlicingScenario.node[2].appl meanRxPacketSize_41_25 1510
scalar SlicingScenario.node[2].appl meanTxPacketSize_41_25 0
scalar SlicingScenario.node[2].appl meanRxThroughput_41_25 12227.317221025
scalar SlicingScenario.node[2].appl meanTxThroughput_41_25 0
scalar SlicingScenario.node[2].appl rxTimeOfService_41_25 81.999999008443
scalar SlicingScenario.node[2].appl txTimeOfService_41_25 0
scalar SlicingScenario.node[2].nic.phy80211p busyTime 0.044009806451611
scalar SlicingScenario.node[2].nic.phy80211p ncollisions 0
scalar SlicingScenario.node[2].nic.phy80211p UnderSensitivityPackets 211
scalar SlicingScenario.node[2].nic.mac1609_4 ReceivedUnicastPackets_CCH 0
scalar SlicingScenario.node[2].nic.mac1609_4 ReceivedBroadcasts_CCH 0
scalar SlicingScenario.node[2].nic.mac1609_4 SentPackets_CCH 0
scalar SlicingScenario.node[2].nic.mac1609_4 SentAcknowledgements_CCH 0
scalar SlicingScenario.node[2].nic.mac1609_4 SNIRLostPackets_CCH 0
scalar SlicingScenario.node[2].nic.mac1609_4 RXTXLostPackets_CCH 0
scalar SlicingScenario.node[2].nic.mac1609_4 TotalLostPackets_CCH 0
scalar SlicingScenario.node[2].nic.mac1609_4 DroppedPacketsInMac_CCH 0
scalar SlicingScenario.node[2].nic.mac1609_4 TooLittleTime_CCH 0
scalar SlicingScenario.node[2].nic.mac1609_4 TimesIntoBackoff_CCH 0
scalar SlicingScenario.node[2].nic.mac1609_4 SlotsBackoff_CCH 0
scalar SlicingScenario.node[2].nic.mac1609_4 NumInternalContention_CCH 0
scalar SlicingScenario.node[2].nic.mac1609_4 RemainingPacketsInEDCA_CCH 0
scalar SlicingScenario.node[2].nic.mac1609_4 totalBusyTime_CCH 0
scalar SlicingScenario.node[2].nic.mac1609_4 ReceivedUnicastPackets_SCH 0
scalar SlicingScenario.node[2].nic.mac1609_4 ReceivedBroadcasts_SCH 1983
scalar SlicingScenario.node[2].nic.mac1609_4 SentPackets_SCH 0
scalar SlicingScenario.node[2].nic.mac1609_4 SentAcknowledgements_SCH 0
scalar SlicingScenario.node[2].nic.mac1609_4 SNIRLostPackets_SCH 0
scalar SlicingScenario.node[2].nic.mac1609_4 RXTXLostPackets_SCH 0
scalar SlicingScenario.node[2].nic.mac1609_4 TotalLostPackets_SCH 0
scalar SlicingScenario.node[2].nic.mac1609_4 DroppedPacketsInMac_SCH 0
scalar SlicingScenario.node[2].nic.mac1609_4 TooLittleTime_SCH 0
scalar SlicingScenario.node[2].nic.mac1609_4 TimesIntoBackoff_SCH 0
scalar SlicingScenario.node[2].nic.mac1609_4 SlotsBackoff_SCH 0
scalar SlicingScenario.node[2].nic.mac1609_4 NumInternalContention_SCH 0
scalar SlicingScenario.node[2].nic.mac1609_4 RemainingPacketsInEDCA_SCH 0
scalar SlicingScenario.node[2].nic.mac1609_4 totalBusyTime_SCH 4.092912
scalar SlicingScenario.node[2].veinsmobility startTime 3
scalar SlicingScenario.node[2].veinsmobility totalTime 92
scalar SlicingScenario.node[2].veinsmobility stopTime 96
scalar SlicingScenario.node[2].veinsmobility minSpeed 7.9524227147787
scalar SlicingScenario.node[2].veinsmobility maxSpeed 11.10648130592
scalar SlicingScenario.node[2].veinsmobility totalDistance 983.25075938998
scalar SlicingScenario.node[2].veinsmobility totalCO2Emission 166.75101206108
scalar SlicingScenario.node[3].appl txPackets_31 0
scalar SlicingScenario.node[3].appl rxPackets_31 0
scalar SlicingScenario.node[3].appl rxNeighborPackets_31 0
scalar SlicingScenario.node[3].appl meanDelay_31 0
scalar SlicingScenario.node[3].appl meanJitter_31 0
scalar SlicingScenario.node[3].appl meanRxPacketSize_31 0
scalar SlicingScenario.node[3].appl meanTxPacketSize_31 0
scalar SlicingScenario.node[3].appl meanRxThroughput_31 0
scalar SlicingScenario.node[3].appl meanTxThroughput_31 0
scalar SlicingScenario.node[3].appl rxTimeOfService_31 0
scalar SlicingScenario.node[3].appl txTimeOfService_31 0
scalar SlicingScenario.node[3].appl txPackets_40_31 0
scalar SlicingScenario.node[3].appl rxPackets_40_31 83
scalar SlicingScenario.node[3].appl rxNeighborPackets_40_31 859
scalar SlicingScenario.node[3].appl meanDelay_40_31 0.002070759749
scalar SlicingScenario.node[3].appl meanJitter_40_31 2.5476935e-05
scalar SlicingScenario.node[3].appl meanRxPacketSize_40_31 1510
scalar SlicingScenario.node[3].appl meanTxPacketSize_40_31 0
scalar SlicingScenario.node[3].appl meanRxThroughput_40_31 12227.317225033
scalar SlicingScenario.node[3].appl meanTxThroughput_40_31 0
scalar SlicingScenario.node[3].appl rxTimeOfService_40_31 81.999998981567
scalar SlicingScenario.node[3].appl txTimeOfService_40_31 0
scalar SlicingScenario.node[3].nic.phy80211p busyTime 0.044488173913042
scalar SlicingScenario.node[3].nic.phy80211p ncollisions 0
scalar SlicingScenario.node[3].nic.phy80211p UnderSensitivityPackets 210
scalar SlicingScenario.node[3].nic.mac1609_4 ReceivedUnicastPackets_CCH 0
scalar SlicingScenario.node[3].nic.mac1609_4 ReceivedBroadcasts_CCH 0
scalar SlicingScenario.node[3].nic.mac1609_4 SentPackets_CCH 0
scalar SlicingScenario.node[3].nic.mac1609_4 SentAcknowledgements_CCH 0
scalar SlicingScenario.node[3].nic.mac1609_4 SNIRLostPackets_CCH 0
scalar SlicingScenario.node[3].nic.mac1609_4 RXTXLostPackets_CCH 0
scalar SlicingScenario.node[3].nic.mac1609_4 TotalLostPackets_CCH 0
scalar SlicingScenario.node[3].nic.mac1609_4 DroppedPacketsInMac_CCH 0
scalar SlicingScenario.node[3].nic.mac1609_4 TooLittleTime_CCH 0
scalar SlicingScenario.node[3].nic.mac1609_4 TimesIntoBackoff_CCH 0
scalar SlicingScenario.node[3].nic.mac1609_4 SlotsBackoff_CCH 0
scalar SlicingScenario.node[3].nic.mac1609_4 NumInternalContention_CCH 0
scalar SlicingScenario.node[3].nic.mac1609_4 RemainingPacketsInEDCA_CCH 0
scalar SlicingScenario.node[3].nic.mac1609_4 totalBusyTime_CCH 0
scalar SlicingScenario.node[3].nic.mac1609_4 ReceivedUnicastPackets_SCH 0
scalar SlicingScenario.node[3].nic.mac1609_4 ReceivedBroadcasts_SCH 1983
scalar SlicingScenario.node[3].nic.mac1609_4 SentPackets_SCH 0
scalar SlicingScenario.node[3].nic.mac1609_4 SentAcknowledgements_SCH 0
scalar SlicingScenario.node[3].nic.mac1609_4 SNIRLostPackets_SCH 0
scalar SlicingScenario.node[3].nic.mac1609_4 RXTXLostPackets_SCH 0
scalar SlicingScenario.node[3].nic.mac1609_4 TotalLostPackets_SCH 0
scalar SlicingScenario.node[3].nic.mac1609_4 DroppedPacketsInMac_SCH 0
scalar SlicingScenario.node[3].nic.mac1609_4 TooLittleTime_SCH 0
scalar SlicingScenario.node[3].nic.mac1609_4 TimesIntoBackoff_SCH 0
scalar SlicingScenario.node[3].nic.mac1609_4 SlotsBackoff_SCH 0
scalar SlicingScenario.node[3].nic.mac1609_4 NumInternalContention_SCH 0
scalar SlicingScenario.node[3].nic.mac1609_4 RemainingPacketsInEDCA_SCH 0
scalar SlicingScenario.node[3].nic.mac1609_4 totalBusyTime_SCH 4.092912
scalar SlicingScenario.node[3].veinsmobility startTime 4
scalar SlicingScenario.node[3].veinsmobility totalTime 91
scalar SlicingScenario.node[3].veinsmobility stopTime 96
scalar SlicingScenario.node[3].veinsmobility minSpeed 10.610429949025
scalar SlicingScenario.node[3].veinsmobility maxSpeed 11.102668363149
scalar SlicingScenario.node[3].veinsmobility totalDistance 977.59506728469
scalar SlicingScenario.node[3].veinsmobility totalCO2Emission 158.57663595055
scalar SlicingScenario.node[4].appl txPackets_37 0
scalar SlicingScenario.node[4].appl rxPackets_37 0
scalar SlicingScenario.node[4].appl rxNeighborPackets_37 0
scalar SlicingScenario.node[4].appl meanDelay_37 0
scalar SlicingScenario.node[4].appl meanJitter_37 0
scalar SlicingScenario.node[4].appl meanRxPacketSize_37 0
scalar SlicingScenario.node[4].appl meanTxPacketSize_37 0
scalar SlicingScenario.node[4].appl meanRxThroughput_37 0
scalar SlicingScenario.node[4].appl meanTxThroughput_37 0
scalar SlicingScenario.node[4].appl rxTimeOfService_37 0
scalar SlicingScenario.node[4].appl txTimeOfService_37 0
scalar SlicingScenario.node[4].appl txPackets_40_37 0
scalar SlicingScenario.node[4].appl rxPackets_40_37 83
scalar SlicingScenario.node[4].appl rxNeighborPackets_40_37 899
scalar SlicingScenario.node[4].appl meanDelay_40_37 0.002976099699
scalar SlicingScenario.node[4].appl meanJitter_40_37 7.2385247e-05
scalar SlicingScenario.node[4].appl meanRxPacketSize_40_37 1510
scalar SlicingScenario.node[4].appl meanTxPacketSize_40_37 0
scalar SlicingScenario.node[4].appl meanRxThroughput_40_37 12227.075512659
scalar SlicingScenario.node[4].appl meanTxThroughput_40_37 0
scalar SlicingScenario.node[4].appl rxTimeOfService_40_37 82.001620008148
scalar SlicingScenario.node[4].appl txTimeOfService_40_37 0
scalar SlicingScenario.node[4].nic.phy80211p busyTime 0.045607741935482
scalar SlicingScenario.node[4].nic.phy80211p ncollisions 0
scalar SlicingScenario.node[4].nic.phy80211p UnderSensitivityPackets 216
scalar SlicingScenario.node[4].nic.mac1609_4 ReceivedUnicastPackets_CCH 0
scalar SlicingScenario.node[4].nic.mac1609_4 ReceivedBroadcasts_CCH 47
scalar SlicingScenario.node[4].nic.mac1609_4 SentPackets_CCH 0
scalar SlicingScenario.node[4].nic.mac1609_4 SentAcknowledgements_CCH 0
scalar SlicingScenario.node[4].nic.mac1609_4 SNIRLostPackets_CCH 0
scalar SlicingScenario.node[4].nic.mac1609_4 RXTXLostPackets_CCH 0
scalar SlicingScenario.node[4].nic.mac1609_4 TotalLostPackets_CCH 0
scalar SlicingScenario.node[4].nic.mac1609_4 DroppedPacketsInMac_CCH 0
scalar SlicingScenario.node[4].nic.mac1609_4 TooLittleTime_CCH 0
scalar SlicingScenario.node[4].nic.mac1609_4 TimesIntoBackoff_CCH 0
scalar SlicingScenario.node[4].nic.mac1609_4 SlotsBackoff_CCH 0
scalar SlicingScenario.node[4].nic.mac1609_4 NumInternalContention_CCH 0
scalar SlicingScenario.node[4].nic.mac1609_4 RemainingPacketsInEDCA_CCH 0
scalar SlicingScenario.node[4].nic.mac1609_4 totalBusyTime_CCH 0.192988293302
scalar SlicingScenario.node[4].nic.mac1609_4 ReceivedUnicastPackets_SCH 0
scalar SlicingScenario.node[4].nic.mac1609_4 ReceivedBroadcasts_SCH 2008
scalar SlicingScenario.node[4].nic.mac1609_4 SentPackets_SCH 0
scalar SlicingScenario.node[4].nic.mac1609_4 SentAcknowledgements_SCH 0
scalar SlicingScenario.node[4].nic.mac1609_4 SNIRLostPackets_SCH 0
scalar SlicingScenario.node[4].nic.mac1609_4 RXTXLostPackets_SCH 0
scalar SlicingScenario.node[4].nic.mac1609_4 TotalLostPackets_SCH 0
scalar SlicingScenario.node[4].nic.mac1609_4 DroppedPacketsInMac_SCH 0
scalar SlicingScenario.node[4].nic.mac1609_4 TooLittleTime_SCH 0
scalar SlicingScenario.node[4].nic.mac1609_4 TimesIntoBackoff_SCH 0
scalar SlicingScenario.node[4].nic.mac1609_4 SlotsBackoff_SCH 0
scalar SlicingScenario.node[4].nic.mac1609_4 NumInternalContention_SCH 0
scalar SlicingScenario.node[4].nic.mac1609_4 RemainingPacketsInEDCA_SCH 0
scalar SlicingScenario.node[4].nic.mac1609_4 totalBusyTime_SCH 4.144512
scalar SlicingScenario.node[4].veinsmobility startTime 5
scalar SlicingScenario.node[4].veinsmobility totalTime 92
scalar SlicingScenario.node[4].veinsmobility stopTime 98
scalar SlicingScenario.node[4].veinsmobility minSpeed 8.4137944102851
scalar SlicingScenario.node[4].veinsmobility maxSpeed 11.102397178197
scalar SlicingScenario.node[4].veinsmobility totalDistance 981.08046764971
scalar SlicingScenario.node[4].veinsmobility totalCO2Emission 165.03102191548
scalar SlicingScenario.node[5].appl txPackets_43 0
scalar SlicingScenario.node[5].appl rxPackets_43 0
scalar SlicingScenario.node[5].appl rxNeighborPackets_43 0
scalar SlicingScenario.node[5].appl meanDelay_43 0
scalar SlicingScenario.node[5].appl meanJitter_43 0
scalar SlicingScenario.node[5].appl meanRxPacketSize_43 0
scalar SlicingScenario.node[5].appl meanTxPacketSize_43 0
scalar SlicingScenario.node[5].appl meanRxThroughput_43 0
scalar SlicingScenario.node[5].appl meanTxThroughput_43 0
scalar SlicingScenario.node[5].appl rxTimeOfService_43 0
scalar SlicingScenario.node[5].appl txTimeOfService_43 0
scalar SlicingScenario.node[5].appl txPackets_41_43 0
scalar SlicingScenario.node[5].appl rxPackets_41_43 81
scalar SlicingScenario.node[5].appl rxNeighborPackets_41_43 992
scalar SlicingScenario.node[5].appl meanDelay_41_43 0.00207144481
scalar SlicingScenario.node[5].appl meanJitter_41_43 2.6101185e-05
scalar SlicingScenario.node[5].appl meanRxPacketSize_41_43 1510
scalar SlicingScenario.node[5].appl meanTxPacketSize_41_43 0
scalar SlicingScenario.node[5].appl meanRxThroughput_41_43 12231.000755513
scalar SlicingScenario.node[5].appl meanTxThroughput_41_43 0
scalar SlicingScenario.node[5].appl rxTimeOfService_41_43 79.999995058372
scalar SlicingScenario.node[5].appl txTimeOfService_41_43 0
scalar SlicingScenario.node[5].nic.phy80211p busyTime 0.046103478260868
scalar SlicingScenario.node[5].nic.phy80211p ncollisions 0
scalar SlicingScenario.node[5].nic.phy80211p UnderSensitivityPackets 214
scalar SlicingScenario.node[5].nic.mac1609_4 ReceivedUnicastPackets_CCH 0
scalar SlicingScenario.node[5].nic.mac1609_4 ReceivedBroadcasts_CCH 47
scalar SlicingScenario.node[5].nic.mac1609_4 SentPackets_CCH 0
scalar SlicingScenario.node[5].nic.mac1609_4 SentAcknowledgements_CCH 0
scalar SlicingScenario.node[5].nic.mac1609_4 SNIRLostPackets_CCH 0
scalar SlicingScenario.node[5].nic.mac1609_4 RXTXLostPackets_CCH 0
scalar SlicingScenario.node[5].nic.mac1609_4 TotalLostPackets_CCH 0
scalar SlicingScenario.node[5].nic.mac1609_4 DroppedPacketsInMac_CCH 0
scalar SlicingScenario.node[5].nic.mac1609_4 TooLittleTime_CCH 0
scalar SlicingScenario.node[5].nic.mac1609_4 TimesIntoBackoff_CCH 0
scalar SlicingScenario.node[5].nic.mac1609_4 SlotsBackoff_CCH 0
scalar SlicingScenario.node[5].nic.mac1609_4 NumInternalContention_CCH 0
scalar SlicingScenario.node[5].nic.mac1609_4 RemainingPacketsInEDCA_CCH 0
scalar SlicingScenario.node[5].nic.mac1609_4 totalBusyTime_CCH 0.193270914399
scalar SlicingScenario.node[5].nic.mac1609_4 ReceivedUnicastPackets_SCH 0
scalar SlicingScenario.node[5].nic.mac1609_4 ReceivedBroadcasts_SCH 2008
scalar SlicingScenario.node[5].nic.mac1609_4 SentPackets_SCH 0
scalar SlicingScenario.node[5].nic.mac1609_4 SentAcknowledgements_SCH 0
scalar SlicingScenario.node[5].nic.mac1609_4 SNIRLostPackets_SCH 0
scalar SlicingScenario.node[5].nic.mac1609_4 RXTXLostPackets_SCH 0
scalar SlicingScenario.node[5].nic.mac1609_4 TotalLostPackets_SCH 0
scalar SlicingScenario.node[5].nic.mac1609_4 DroppedPacketsInMac_SCH 0
scalar SlicingScenario.node[5].nic.mac1609_4 TooLittleTime_SCH 0
scalar SlicingScenario.node[5].nic.mac1609_4 TimesIntoBackoff_SCH 0
scalar SlicingScenario.node[5].nic.mac1609_4 SlotsBackoff_SCH 0
scalar SlicingScenario.node[5].nic.mac1609_4 NumInternalContention_SCH 0
scalar SlicingScenario.node[5].nic.mac1609_4 RemainingPacketsInEDCA_SCH 0
scalar SlicingScenario.node[5].nic.mac1609_4 totalBusyTime_SCH 4.144512
scalar SlicingScenario.node[5].veinsmobility startTime 6
scalar SlicingScenario.node[5].veinsmobility totalTime 91
scalar SlicingScenario.node[5].veinsmobility stopTime 98
scalar SlicingScenario.node[5].veinsmobility minSpeed 10.613016914823
scalar SlicingScenario.node[5].veinsmobility maxSpeed 11.10914895324
scalar SlicingScenario.node[5].veinsmobility totalDistance 979.26611783303
scalar SlicingScenario.node[5].veinsmobility totalCO2Emission 159.37091580877
scalar SlicingScenario.node[6].appl txPackets_49 0
scalar SlicingScenario.node[6].appl rxPackets_49 0
scalar SlicingScenario.node[6].appl rxNeighborPackets_49 0
scalar SlicingScenario.node[6].appl meanDelay_49 0
scalar SlicingScenario.node[6].appl meanJitter_49 0
scalar SlicingScenario.node[6].appl meanRxPacketSize_49 0
scalar SlicingScenario.node[6].appl meanTxPacketSize_49 0
scalar SlicingScenario.node[6].appl meanRxThroughput_49 0
scalar SlicingScenario.node[6].appl meanTxThroughput_49 0
scalar SlicingScenario.node[6].appl rxTimeOfService_49 0
scalar SlicingScenario.node[6].appl txTimeOfService_49 0
scalar SlicingScenario.node[6].appl txPackets_40_49 0
scalar SlicingScenario.node[6].appl rxPackets_40_49 80
scalar SlicingScenario.node[6].appl rxNeighborPackets_40_49 921
scalar SlicingScenario.node[6].appl meanDelay_40_49 0.002635695373
scalar SlicingScenario.node[6].appl meanJitter_40_49 6.7707221e-05
scalar SlicingScenario.node[6].appl meanRxPacketSize_40_49 1510
scalar SlicingScenario.node[6].appl meanTxPacketSize_40_49 0
scalar SlicingScenario.node[6].appl meanRxThroughput_40_49 12232.901312605
scalar SlicingScenario.node[6].appl meanTxThroughput_40_49 0
scalar SlicingScenario.node[6].appl rxTimeOfService_40_49 79.000065095288
scalar SlicingScenario.node[6].appl txTimeOfService_40_49 0
scalar SlicingScenario.node[6].nic.phy80211p busyTime 0.046888695652172
scalar SlicingScenario.node[6].nic.phy80211p ncollisions 0
scalar SlicingScenario.node[6].nic.phy80211p UnderSensitivityPackets 216
scalar SlicingScenario.node[6].nic.mac1609_4 ReceivedUnicastPackets_CCH 0
scalar SlicingScenario.node[6].nic.mac1609_4 ReceivedBroadcasts_CCH 0
scalar SlicingScenario.node[6].nic.mac1609_4 SentPackets_CCH 0
scalar SlicingScenario.node[6].nic.mac1609_4 SentAcknowledgements_CCH 0
scalar SlicingScenario.node[6].nic.mac1609_4 SNIRLostPackets_CCH 0
scalar SlicingScenario.node[6].nic.mac1609_4 RXTXLostPackets_CCH 0
scalar SlicingScenario.node[6].nic.mac1609_4 TotalLostPackets_CCH 0
scalar SlicingScenario.node[6].nic.mac1609_4 DroppedPacketsInMac_CCH 0
scalar SlicingScenario.node[6].nic.mac1609_4 TooLittleTime_CCH 0
scalar SlicingScenario.node[6].nic.mac1609_4 TimesIntoBackoff_CCH 0
scalar SlicingScenario.node[6].nic.mac1609_4 SlotsBackoff_CCH 0
scalar SlicingScenario.node[6].nic.mac1609_4 NumInternalContention_CCH 0
scalar SlicingScenario.node[6].nic.mac1609_4 RemainingPacketsInEDCA_CCH 0
scalar SlicingScenario.node[6].nic.mac1609_4 totalBusyTime_CCH 0
scalar SlicingScenario.node[6].nic.mac1609_4 ReceivedUnicastPackets_SCH 0
scalar SlicingScenario.node[6].nic.mac1609_4 ReceivedBroadcasts_SCH 2090
scalar SlicingScenario.node[6].nic.mac1609_4 SentPackets_SCH 0
scalar SlicingScenario.node[6].nic.mac1609_4 SentAcknowledgements_SCH 0
scalar SlicingScenario.node[6].nic.mac1609_4 SNIRLostPackets_SCH 0
scalar SlicingScenario.node[6].nic.mac1609_4 RXTXLostPackets_SCH 0
scalar SlicingScenario.node[6].nic.mac1609_4 TotalLostPackets_SCH 0
scalar SlicingScenario.node[6].nic.mac1609_4 DroppedPacketsInMac_SCH 0
scalar SlicingScenario.node[6].nic.mac1609_4 TooLittleTime_SCH 0
scalar SlicingScenario.node[6].nic.mac1609_4 TimesIntoBackoff_SCH 0
scalar SlicingScenario.node[6].nic.mac1609_4 SlotsBackoff_SCH 0
scalar SlicingScenario.node[6].nic.mac1609_4 NumInternalContention_SCH 0
scalar SlicingScenario.node[6].nic.mac1609_4 RemainingPacketsInEDCA_SCH 0
scalar SlicingScenario.node[6].nic.mac1609_4 totalBusyTime_SCH 4.31376
scalar SlicingScenario.node[6].veinsmobility startTime 7
scalar SlicingScenario.node[6].veinsmobility totalTime 91
scalar SlicingScenario.node[6].veinsmobility stopTime 99
scalar SlicingScenario.node[6].veinsmobility minSpeed 10.615467880517
scalar SlicingScenario.node[6].veinsmobility maxSpeed 11.109753856799
scalar SlicingScenario.node[6].veinsmobility totalDistance 980.46295016056
scalar SlicingScenario.node[6].veinsmobility totalCO2Emission 159.38424288501
scalar SlicingScenario.node[8].appl txPackets_61 0
scalar SlicingScenario.node[8].appl rxPackets_61 0
scalar SlicingScenario.node[8].appl rxNeighborPackets_61 0
scalar SlicingScenario.node[8].appl meanDelay_61 0
scalar SlicingScenario.node[8].appl meanJitter_61 0
scalar SlicingScenario.node[8].appl meanRxPacketSize_61 0
scalar SlicingScenario.node[8].appl meanTxPacketSize_61 0
scalar SlicingScenario.node[8].appl meanRxThroughput_61 0
scalar SlicingScenario.node[8].appl meanTxThroughput_61 0
scalar SlicingScenario.node[8].appl rxTimeOfService_61 0
scalar SlicingScenario.node[8].appl txTimeOfService_61 0
scalar SlicingScenario.node[8].appl txPackets_41_61 0
scalar SlicingScenario.node[8].appl rxPackets_41_61 78
scalar SlicingScenario.node[8].appl rxNeighborPackets_41_61 1042
scalar SlicingScenario.node[8].appl meanDelay_41_61 0.002068750381
scalar SlicingScenario.node[8].appl meanJitter_41_61 2.7115089e-05
scalar SlicingScenario.node[8].appl meanRxPacketSize_41_61 1510
scalar SlicingScenario.node[8].appl meanTxPacketSize_41_61 0
scalar SlicingScenario.node[8].appl meanRxThroughput_41_61 12236.88452092
scalar SlicingScenario.node[8].appl meanTxThroughput_41_61 0
scalar SlicingScenario.node[8].appl rxTimeOfService_41_61 76.999991165164
scalar SlicingScenario.node[8].appl txTimeOfService_41_61 0
scalar SlicingScenario.node[8].nic.phy80211p busyTime 0.048436695652172
scalar SlicingScenario.node[8].nic.phy80211p ncollisions 0
scalar SlicingScenario.node[8].nic.phy80211p UnderSensitivityPackets 220
scalar SlicingScenario.node[8].nic.mac1609_4 ReceivedUnicastPackets_CCH 0
scalar SlicingScenario.node[8].nic.mac1609_4 ReceivedBroadcasts_CCH 0
scalar SlicingScenario.node[8].nic.mac1609_4 SentPackets_CCH 0
scalar SlicingScenario.node[8].nic.mac1609_4 SentAcknowledgements_CCH 0
scalar SlicingScenario.node[8].nic.mac1609_4 SNIRLostPackets_CCH 0
scalar SlicingScenario.node[8].nic.mac1609_4 RXTXLostPackets_CCH 0
scalar SlicingScenario.node[8].nic.mac1609_4 TotalLostPackets_CCH 0
scalar SlicingScenario.node[8].nic.mac1609_4 DroppedPacketsInMac_CCH 0
scalar SlicingScenario.node[8].nic.mac1609_4 TooLittleTime_CCH 0
scalar SlicingScenario.node[8].nic.mac1609_4 TimesIntoBackoff_CCH 0
scalar SlicingScenario.node[8].nic.mac1609_4 SlotsBackoff_CCH 0
scalar SlicingScenario.node[8].nic.mac1609_4 NumInternalContention_CCH 0
scalar SlicingScenario.node[8].nic.mac1609_4 RemainingPacketsInEDCA_CCH 0
scalar SlicingScenario.node[8].nic.mac1609_4 totalBusyTime_CCH 0
scalar SlicingScenario.node[8].nic.mac1609_4 ReceivedUnicastPackets_SCH 0
scalar SlicingScenario.node[8].nic.mac1609_4 ReceivedBroadcasts_SCH 2159
scalar SlicingScenario.node[8].nic.mac1609_4 SentPackets_SCH 0
scalar SlicingScenario.node[8].nic.mac1609_4 SentAcknowledgements_SCH 0
scalar SlicingScenario.node[8].nic.mac1609_4 SNIRLostPackets_SCH 0
scalar SlicingScenario.node[8].nic.mac1609_4 RXTXLostPackets_SCH 0
scalar SlicingScenario.node[8].nic.mac1609_4 TotalLostPackets_SCH 0
scalar SlicingScenario.node[8].nic.mac1609_4 DroppedPacketsInMac_SCH 0
scalar SlicingScenario.node[8].nic.mac1609_4 TooLittleTime_SCH 0
scalar SlicingScenario.node[8].nic.mac1609_4 TimesIntoBackoff_SCH 0
scalar SlicingScenario.node[8].nic.mac1609_4 SlotsBackoff_SCH 0
scalar SlicingScenario.node[8].nic.mac1609_4 NumInternalContention_SCH 0
scalar SlicingScenario.node[8].nic.mac1609_4 RemainingPacketsInEDCA_SCH 0
scalar SlicingScenario.node[8].nic.mac1609_4 totalBusyTime_SCH 4.456176
scalar SlicingScenario.node[8].veinsmobility startTime 9
scalar SlicingScenario.node[8].veinsmobility totalTime 91
scalar SlicingScenario.node[8].veinsmobility stopTime 101
scalar SlicingScenario.node[8].veinsmobility minSpeed 10.610574931968
scalar SlicingScenario.node[8].veinsmobility maxSpeed 11.10708552775
scalar SlicingScenario.node[8].veinsmobility totalDistance 978.95362354898
scalar SlicingScenario.node[8].veinsmobility totalCO2Emission 160.07363095617
scalar SlicingScenario.node[7].appl txPackets_55 0
scalar SlicingScenario.node[7].appl rxPackets_55 0
scalar SlicingScenario.node[7].appl rxNeighborPackets_55 0
scalar SlicingScenario.node[7].appl meanDelay_55 0
scalar SlicingScenario.node[7].appl meanJitter_55 0
scalar SlicingScenario.node[7].appl meanRxPacketSize_55 0
scalar SlicingScenario.node[7].appl meanTxPacketSize_55 0
scalar SlicingScenario.node[7].appl meanRxThroughput_55 0
scalar SlicingScenario.node[7].appl meanTxThroughput_55 0
scalar SlicingScenario.node[7].appl rxTimeOfService_55 0
scalar SlicingScenario.node[7].appl txTimeOfService_55 0
scalar SlicingScenario.node[7].appl txPackets_41_55 0
scalar SlicingScenario.node[7].appl rxPackets_41_55 80
scalar SlicingScenario.node[7].appl rxNeighborPackets_41_55 1040
scalar SlicingScenario.node[7].appl meanDelay_41_55 0.00299233957
scalar SlicingScenario.node[7].appl meanJitter_41_55 7.0119438e-05
scalar SlicingScenario.node[7].appl meanRxPacketSize_41_55 1510
scalar SlicingScenario.node[7].appl meanTxPacketSize_41_55 0
scalar SlicingScenario.node[7].appl meanRxThroughput_41_55 12232.730515462
scalar SlicingScenario.node[7].appl meanTxThroughput_41_55 0
scalar SlicingScenario.node[7].appl rxTimeOfService_41_55 79.001168118473
scalar SlicingScenario.node[7].appl txTimeOfService_41_55 0
scalar SlicingScenario.node[7].nic.phy80211p busyTime 0.04791587096774
scalar SlicingScenario.node[7].nic.phy80211p ncollisions 0
scalar SlicingScenario.node[7].nic.phy80211p UnderSensitivityPackets 224
scalar SlicingScenario.node[7].nic.mac1609_4 ReceivedUnicastPackets_CCH 0
scalar SlicingScenario.node[7].nic.mac1609_4 ReceivedBroadcasts_CCH 50
scalar SlicingScenario.node[7].nic.mac1609_4 SentPackets_CCH 0
scalar SlicingScenario.node[7].nic.mac1609_4 SentAcknowledgements_CCH 0
scalar SlicingScenario.node[7].nic.mac1609_4 SNIRLostPackets_CCH 0
scalar SlicingScenario.node[7].nic.mac1609_4 RXTXLostPackets_CCH 0
scalar SlicingScenario.node[7].nic.mac1609_4 TotalLostPackets_CCH 0
scalar SlicingScenario.node[7].nic.mac1609_4 DroppedPacketsInMac_CCH 0
scalar SlicingScenario.node[7].nic.mac1609_4 TooLittleTime_CCH 0
scalar SlicingScenario.node[7].nic.mac1609_4 TimesIntoBackoff_CCH 0
scalar SlicingScenario.node[7].nic.mac1609_4 SlotsBackoff_CCH 0
scalar SlicingScenario.node[7].nic.mac1609_4 NumInternalContention_CCH 0
scalar SlicingScenario.node[7].nic.mac1609_4 RemainingPacketsInEDCA_CCH 0
scalar SlicingScenario.node[7].nic.mac1609_4 totalBusyTime_CCH 0.202977742284
scalar SlicingScenario.node[7].nic.mac1609_4 ReceivedUnicastPackets_SCH 0
scalar SlicingScenario.node[7].nic.mac1609_4 ReceivedBroadcasts_SCH 2109
scalar SlicingScenario.node[7].nic.mac1609_4 SentPackets_SCH 0
scalar SlicingScenario.node[7].nic.mac1609_4 SentAcknowledgements_SCH 0
scalar SlicingScenario.node[7].nic.mac1609_4 SNIRLostPackets_SCH 0
scalar SlicingScenario.node[7].nic.mac1609_4 RXTXLostPackets_SCH 0
scalar SlicingScenario.node[7].nic.mac1609_4 TotalLostPackets_SCH 0
scalar SlicingScenario.node[7].nic.mac1609_4 DroppedPacketsInMac_SCH 0
scalar SlicingScenario.node[7].nic.mac1609_4 TooLittleTime_SCH 0
scalar SlicingScenario.node[7].nic.mac1609_4 TimesIntoBackoff_SCH 0
scalar SlicingScenario.node[7].nic.mac1609_4 SlotsBackoff_SCH 0
scalar SlicingScenario.node[7].nic.mac1609_4 NumInternalContention_SCH 0
scalar SlicingScenario.node[7].nic.mac1609_4 RemainingPacketsInEDCA_SCH 0
scalar SlicingScenario.node[7].nic.mac1609_4 totalBusyTime_SCH 4.352976
scalar SlicingScenario.node[7].veinsmobility startTime 8
scalar SlicingScenario.node[7].veinsmobility totalTime 92
scalar SlicingScenario.node[7].veinsmobility stopTime 101
scalar SlicingScenario.node[7].veinsmobility minSpeed 7.9397200899995
scalar SlicingScenario.node[7].veinsmobility maxSpeed 11.102384819314
scalar SlicingScenario.node[7].veinsmobility totalDistance 982.98054041138
scalar SlicingScenario.node[7].veinsmobility totalCO2Emission 167.07561545737
scalar SlicingScenario.node[9].appl txPackets_67 0
scalar SlicingScenario.node[9].appl rxPackets_67 0
scalar SlicingScenario.node[9].appl rxNeighborPackets_67 0
scalar SlicingScenario.node[9].appl meanDelay_67 0
scalar SlicingScenario.node[9].appl meanJitter_67 0
scalar SlicingScenario.node[9].appl meanRxPacketSize_67 0
scalar SlicingScenario.node[9].appl meanTxPacketSize_67 0
scalar SlicingScenario.node[9].appl meanRxThroughput_67 0
scalar SlicingScenario.node[9].appl meanTxThroughput_67 0
scalar SlicingScenario.node[9].appl rxTimeOfService_67 0
scalar SlicingScenario.node[9].appl txTimeOfService_67 0
scalar SlicingScenario.node[9].appl txPackets_41_67 0
scalar SlicingScenario.node[9].appl rxPackets_41_67 77
scalar SlicingScenario.node[9].appl rxNeighborPackets_41_67 1058
scalar SlicingScenario.node[9].appl meanDelay_41_67 0.057328549409
scalar SlicingScenario.node[9].appl meanJitter_41_67 0.000786639749
scalar SlicingScenario.node[9].appl meanRxPacketSize_41_67 1510
scalar SlicingScenario.node[9].appl meanTxPacketSize_41_67 0
scalar SlicingScenario.node[9].appl meanRxThroughput_41_67 12238.943149455
scalar SlicingScenario.node[9].appl meanTxThroughput_41_67 0
scalar SlicingScenario.node[9].appl rxTimeOfService_41_67 76.000026198457
scalar SlicingScenario.node[9].appl txTimeOfService_41_67 0
scalar SlicingScenario.node[9].nic.phy80211p busyTime 0.049199478260868
scalar SlicingScenario.node[9].nic.phy80211p ncollisions 0
scalar SlicingScenario.node[9].nic.phy80211p UnderSensitivityPackets 222
scalar SlicingScenario.node[9].nic.mac1609_4 ReceivedUnicastPackets_CCH 0
scalar SlicingScenario.node[9].nic.mac1609_4 ReceivedBroadcasts_CCH 0
scalar SlicingScenario.node[9].nic.mac1609_4 SentPackets_CCH 0
scalar SlicingScenario.node[9].nic.mac1609_4 SentAcknowledgements_CCH 0
scalar SlicingScenario.node[9].nic.mac1609_4 SNIRLostPackets_CCH 0
scalar SlicingScenario.node[9].nic.mac1609_4 RXTXLostPackets_CCH 0
scalar SlicingScenario.node[9].nic.mac1609_4 TotalLostPackets_CCH 0
scalar SlicingScenario.node[9].nic.mac1609_4 DroppedPacketsInMac_CCH 0
scalar SlicingScenario.node[9].nic.mac1609_4 TooLittleTime_CCH 0
scalar SlicingScenario.node[9].nic.mac1609_4 TimesIntoBackoff_CCH 0
scalar SlicingScenario.node[9].nic.mac1609_4 SlotsBackoff_CCH 0
scalar SlicingScenario.node[9].nic.mac1609_4 NumInternalContention_CCH 0
scalar SlicingScenario.node[9].nic.mac1609_4 RemainingPacketsInEDCA_CCH 0
scalar SlicingScenario.node[9].nic.mac1609_4 totalBusyTime_CCH 0
scalar SlicingScenario.node[9].nic.mac1609_4 ReceivedUnicastPackets_SCH 0
scalar SlicingScenario.node[9].nic.mac1609_4 ReceivedBroadcasts_SCH 2193
scalar SlicingScenario.node[9].nic.mac1609_4 SentPackets_SCH 0
scalar SlicingScenario.node[9].nic.mac1609_4 SentAcknowledgements_SCH 0
scalar SlicingScenario.node[9].nic.mac1609_4 SNIRLostPackets_SCH 0
scalar SlicingScenario.node[9].nic.mac1609_4 RXTXLostPackets_SCH 0
scalar SlicingScenario.node[9].nic.mac1609_4 TotalLostPackets_SCH 0
scalar SlicingScenario.node[9].nic.mac1609_4 DroppedPacketsInMac_SCH 0
scalar SlicingScenario.node[9].nic.mac1609_4 TooLittleTime_SCH 0
scalar SlicingScenario.node[9].nic.mac1609_4 TimesIntoBackoff_SCH 0
scalar SlicingScenario.node[9].nic.mac1609_4 SlotsBackoff_SCH 0
scalar SlicingScenario.node[9].nic.mac1609_4 NumInternalContention_SCH 0
scalar SlicingScenario.node[9].nic.mac1609_4 RemainingPacketsInEDCA_SCH 0
scalar SlicingScenario.node[9].nic.mac1609_4 totalBusyTime_SCH 4.526352
scalar SlicingScenario.node[9].veinsmobility startTime 10
scalar SlicingScenario.node[9].veinsmobility totalTime 91
scalar SlicingScenario.node[9].veinsmobility stopTime 102
scalar SlicingScenario.node[9].veinsmobility minSpeed 10.621945787235
scalar SlicingScenario.node[9].veinsmobility maxSpeed 11.106706302278
scalar SlicingScenario.node[9].veinsmobility totalDistance 978.77722940335
scalar SlicingScenario.node[9].veinsmobility totalCO2Emission 158.213246287
scalar SlicingScenario.node[10].appl txPackets_73 0
scalar SlicingScenario.node[10].appl rxPackets_73 0
scalar SlicingScenario.node[10].appl rxNeighborPackets_73 0
scalar SlicingScenario.node[10].appl meanDelay_73 0
scalar SlicingScenario.node[10].appl meanJitter_73 0
scalar SlicingScenario.node[10].appl meanRxPacketSize_73 0
scalar SlicingScenario.node[10].appl meanTxPacketSize_73 0
scalar SlicingScenario.node[10].appl meanRxThroughput_73 0
scalar SlicingScenario.node[10].appl meanTxThroughput_73 0
scalar SlicingScenario.node[10].appl rxTimeOfService_73 0
scalar SlicingScenario.node[10].appl txTimeOfService_73 0
scalar SlicingScenario.node[10].appl txPackets_41_73 0
scalar SlicingScenario.node[10].appl rxPackets_41_73 76
scalar SlicingScenario.node[10].appl rxNeighborPackets_41_73 1074
scalar SlicingScenario.node[10].appl meanDelay_41_73 0.002101291597
scalar SlicingScenario.node[10].appl meanJitter_41_73 3.9050717e-05
scalar SlicingScenario.node[10].appl meanRxPacketSize_41_73 1510
scalar SlicingScenario.node[10].appl meanTxPacketSize_41_73 0
scalar SlicingScenario.node[10].appl meanRxThroughput_41_73 12241.046226065
scalar SlicingScenario.node[10].appl meanTxThroughput_41_73 0
scalar SlicingScenario.node[10].appl rxTimeOfService_41_73 75.00012523808
scalar SlicingScenario.node[10].appl txTimeOfService_41_73 0
scalar SlicingScenario.node[10].nic.phy80211p busyTime 0.049939826086955
scalar SlicingScenario.node[10].nic.phy80211p ncollisions 0
scalar SlicingScenario.node[10].nic.phy80211p UnderSensitivityPackets 224
scalar SlicingScenario.node[10].nic.mac1609_4 ReceivedUnicastPackets_CCH 0
scalar SlicingScenario.node[10].nic.mac1609_4 ReceivedBroadcasts_CCH 0
scalar SlicingScenario.node[10].nic.mac1609_4 SentPackets_CCH 0
scalar SlicingScenario.node[10].nic.mac1609_4 SentAcknowledgements_CCH 0
scalar SlicingScenario.node[10].nic.mac1609_4 SNIRLostPackets_CCH 0
scalar SlicingScenario.node[10].nic.mac1609_4 RXTXLostPackets_CCH 0
scalar SlicingScenario.node[10].nic.mac1609_4 TotalLostPackets_CCH 0
scalar SlicingScenario.node[10].nic.mac1609_4 DroppedPacketsInMac_CCH 0
scalar SlicingScenario.node[10].nic.mac1609_4 TooLittleTime_CCH 0
scalar SlicingScenario.node[10].nic.mac1609_4 TimesIntoBackoff_CCH 0
scalar SlicingScenario.node[10].nic.mac1609_4 SlotsBackoff_CCH 0
scalar SlicingScenario.node[10].nic.mac1609_4 NumInternalContention_CCH 0
scalar SlicingScenario.node[10].nic.mac1609_4 RemainingPacketsInEDCA_CCH 0
scalar SlicingScenario.node[10].nic.mac1609_4 totalBusyTime_CCH 0
scalar SlicingScenario.node[10].nic.mac1609_4 ReceivedUnicastPackets_SCH 0
scalar SlicingScenario.node[10].nic.mac1609_4 ReceivedBroadcasts_SCH 2226
scalar SlicingScenario.node[10].nic.mac1609_4 SentPackets_SCH 0
scalar SlicingScenario.node[10].nic.mac1609_4 SentAcknowledgements_SCH 0
scalar SlicingScenario.node[10].nic.mac1609_4 SNIRLostPackets_SCH 0
scalar SlicingScenario.node[10].nic.mac1609_4 RXTXLostPackets_SCH 0
scalar SlicingScenario.node[10].nic.mac1609_4 TotalLostPackets_SCH 0
scalar SlicingScenario.node[10].nic.mac1609_4 DroppedPacketsInMac_SCH 0
scalar SlicingScenario.node[10].nic.mac1609_4 TooLittleTime_SCH 0
scalar SlicingScenario.node[10].nic.mac1609_4 TimesIntoBackoff_SCH 0
scalar SlicingScenario.node[10].nic.mac1609_4 SlotsBackoff_SCH 0
scalar SlicingScenario.node[10].nic.mac1609_4 NumInternalContention_SCH 0
scalar SlicingScenario.node[10].nic.mac1609_4 RemainingPacketsInEDCA_SCH 0
scalar SlicingScenario.node[10].nic.mac1609_4 totalBusyTime_SCH 4.594464
scalar SlicingScenario.node[10].veinsmobility startTime 11
scalar SlicingScenario.node[10].veinsmobility totalTime 91
scalar SlicingScenario.node[10].veinsmobility stopTime 103
scalar SlicingScenario.node[10].veinsmobility minSpeed 10.61154825137
scalar SlicingScenario.node[10].veinsmobility maxSpeed 11.104450094993
scalar SlicingScenario.node[10].veinsmobility totalDistance 979.87421858218
scalar SlicingScenario.node[10].veinsmobility totalCO2Emission 158.0751966608
scalar SlicingScenario.node[11].appl txPackets_79 0
scalar SlicingScenario.node[11].appl rxPackets_79 0
scalar SlicingScenario.node[11].appl rxNeighborPackets_79 0
scalar SlicingScenario.node[11].appl meanDelay_79 0
scalar SlicingScenario.node[11].appl meanJitter_79 0
scalar SlicingScenario.node[11].appl meanRxPacketSize_79 0
scalar SlicingScenario.node[11].appl meanTxPacketSize_79 0
scalar SlicingScenario.node[11].appl meanRxThroughput_79 0
scalar SlicingScenario.node[11].appl meanTxThroughput_79 0
scalar SlicingScenario.node[11].appl rxTimeOfService_79 0
scalar SlicingScenario.node[11].appl txTimeOfService_79 0
scalar SlicingScenario.node[11].appl txPackets_41_79 0
scalar SlicingScenario.node[11].appl rxPackets_41_79 75
scalar SlicingScenario.node[11].appl rxNeighborPackets_41_79 1090
scalar SlicingScenario.node[11].appl meanDelay_41_79 0.002073781745
scalar SlicingScenario.node[11].appl meanJitter_41_79 2.8283477e-05
scalar SlicingScenario.node[11].appl meanRxPacketSize_41_79 1510
scalar SlicingScenario.node[11].appl meanTxPacketSize_41_79 0
scalar SlicingScenario.node[11].appl meanRxThroughput_41_79 12243.242701897
scalar SlicingScenario.node[11].appl meanTxThroughput_41_79 0
scalar SlicingScenario.node[11].appl rxTimeOfService_41_79 74.000003271981
scalar SlicingScenario.node[11].appl txTimeOfService_41_79 0
scalar SlicingScenario.node[11].nic.phy80211p busyTime 0.050680173913042
scalar SlicingScenario.node[11].nic.phy80211p ncollisions 0
scalar SlicingScenario.node[11].nic.phy80211p UnderSensitivityPackets 226
scalar SlicingScenario.node[11].nic.mac1609_4 ReceivedUnicastPackets_CCH 0
scalar SlicingScenario.node[11].nic.mac1609_4 ReceivedBroadcasts_CCH 0
scalar SlicingScenario.node[11].nic.mac1609_4 SentPackets_CCH 0
scalar SlicingScenario.node[11].nic.mac1609_4 SentAcknowledgements_CCH 0
scalar SlicingScenario.node[11].nic.mac1609_4 SNIRLostPackets_CCH 0
scalar SlicingScenario.node[11].nic.mac1609_4 RXTXLostPackets_CCH 0
scalar SlicingScenario.node[11].nic.mac1609_4 TotalLostPackets_CCH 0
scalar SlicingScenario.node[11].nic.mac1609_4 DroppedPacketsInMac_CCH 0
scalar SlicingScenario.node[11].nic.mac1609_4 TooLittleTime_CCH 0
scalar SlicingScenario.node[11].nic.mac1609_4 TimesIntoBackoff_CCH 0
scalar SlicingScenario.node[11].nic.mac1609_4 SlotsBackoff_CCH 0
scalar SlicingScenario.node[11].nic.mac1609_4 NumInternalContention_CCH 0
scalar SlicingScenario.node[11].nic.mac1609_4 RemainingPacketsInEDCA_CCH 0
scalar SlicingScenario.node[11].nic.mac1609_4 totalBusyTime_CCH 0
scalar SlicingScenario.node[11].nic.mac1609_4 ReceivedUnicastPackets_SCH 0
scalar SlicingScenario.node[11].nic.mac1609_4 ReceivedBroadcasts_SCH 2259
scalar SlicingScenario.node[11].nic.mac1609_4 SentPackets_SCH 0
scalar SlicingScenario.node[11].nic.mac1609_4 SentAcknowledgements_SCH 0
scalar SlicingScenario.node[11].nic.mac1609_4 SNIRLostPackets_SCH 0
scalar SlicingScenario.node[11].nic.mac1609_4 RXTXLostPackets_SCH 0
scalar SlicingScenario.node[11].nic.mac1609_4 TotalLostPackets_SCH 0
scalar SlicingScenario.node[11].nic.mac1609_4 DroppedPacketsInMac_SCH 0
scalar SlicingScenario.node[11].nic.mac1609_4 TooLittleTime_SCH 0
scalar SlicingScenario.node[11].nic.mac1609_4 TimesIntoBackoff_SCH 0
scalar SlicingScenario.node[11].nic.mac1609_4 SlotsBackoff_SCH 0
scalar SlicingScenario.node[11].nic.mac1609_4 NumInternalContention_SCH 0
scalar SlicingScenario.node[11].nic.mac1609_4 RemainingPacketsInEDCA_SCH 0
scalar SlicingScenario.node[11].nic.mac1609_4 totalBusyTime_SCH 4.662576
scalar SlicingScenario.node[11].veinsmobility startTime 12
scalar SlicingScenario.node[11].veinsmobility totalTime 91
scalar SlicingScenario.node[11].veinsmobility stopTime 104
scalar SlicingScenario.node[11].veinsmobility minSpeed 10.6171922153
scalar SlicingScenario.node[11].veinsmobility maxSpeed 11.105820462005
scalar SlicingScenario.node[11].veinsmobility totalDistance 977.66166489114
scalar SlicingScenario.node[11].veinsmobility totalCO2Emission 157.51794003948
scalar SlicingScenario.node[12].appl txPackets_85 0
scalar SlicingScenario.node[12].appl rxPackets_85 0
scalar SlicingScenario.node[12].appl rxNeighborPackets_85 0
scalar SlicingScenario.node[12].appl meanDelay_85 0
scalar SlicingScenario.node[12].appl meanJitter_85 0
scalar SlicingScenario.node[12].appl meanRxPacketSize_85 0
scalar SlicingScenario.node[12].appl meanTxPacketSize_85 0
scalar SlicingScenario.node[12].appl meanRxThroughput_85 0
scalar SlicingScenario.node[12].appl meanTxThroughput_85 0
scalar SlicingScenario.node[12].appl rxTimeOfService_85 0
scalar SlicingScenario.node[12].appl txTimeOfService_85 0
scalar SlicingScenario.node[12].appl txPackets_40_85 0
scalar SlicingScenario.node[12].appl rxPackets_40_85 74
scalar SlicingScenario.node[12].appl rxNeighborPackets_40_85 1038
scalar SlicingScenario.node[12].appl meanDelay_40_85 0.002069469034
scalar SlicingScenario.node[12].appl meanJitter_40_85 2.8402575e-05
scalar SlicingScenario.node[12].appl meanRxPacketSize_40_85 1510
scalar SlicingScenario.node[12].appl meanTxPacketSize_40_85 0
scalar SlicingScenario.node[12].appl meanRxThroughput_40_85 12245.478731225
scalar SlicingScenario.node[12].appl meanTxThroughput_40_85 0
scalar SlicingScenario.node[12].appl rxTimeOfService_40_85 73.000004297146
scalar SlicingScenario.node[12].appl txTimeOfService_40_85 0
scalar SlicingScenario.node[12].nic.phy80211p busyTime 0.05139808695652
scalar SlicingScenario.node[12].nic.phy80211p ncollisions 0
scalar SlicingScenario.node[12].nic.phy80211p UnderSensitivityPackets 228
scalar SlicingScenario.node[12].nic.mac1609_4 ReceivedUnicastPackets_CCH 0
scalar SlicingScenario.node[12].nic.mac1609_4 ReceivedBroadcasts_CCH 0
scalar SlicingScenario.node[12].nic.mac1609_4 SentPackets_CCH 0
scalar SlicingScenario.node[12].nic.mac1609_4 SentAcknowledgements_CCH 0
scalar SlicingScenario.node[12].nic.mac1609_4 SNIRLostPackets_CCH 0
scalar SlicingScenario.node[12].nic.mac1609_4 RXTXLostPackets_CCH 0
scalar SlicingScenario.node[12].nic.mac1609_4 TotalLostPackets_CCH 0
scalar SlicingScenario.node[12].nic.mac1609_4 DroppedPacketsInMac_CCH 0
scalar SlicingScenario.node[12].nic.mac1609_4 TooLittleTime_CCH 0
scalar SlicingScenario.node[12].nic.mac1609_4 TimesIntoBackoff_CCH 0
scalar SlicingScenario.node[12].nic.mac1609_4 SlotsBackoff_CCH 0
scalar SlicingScenario.node[12].nic.mac1609_4 NumInternalContention_CCH 0
scalar SlicingScenario.node[12].nic.mac1609_4 RemainingPacketsInEDCA_CCH 0
scalar SlicingScenario.node[12].nic.mac1609_4 totalBusyTime_CCH 0
scalar SlicingScenario.node[12].nic.mac1609_4 ReceivedUnicastPackets_SCH 0
scalar SlicingScenario.node[12].nic.mac1609_4 ReceivedBroadcasts_SCH 2291
scalar SlicingScenario.node[12].nic.mac1609_4 SentPackets_SCH 0
scalar SlicingScenario.node[12].nic.mac1609_4 SentAcknowledgements_SCH 0
scalar SlicingScenario.node[12].nic.mac1609_4 SNIRLostPackets_SCH 0
scalar SlicingScenario.node[12].nic.mac1609_4 RXTXLostPackets_SCH 0
scalar SlicingScenario.node[12].nic.mac1609_4 TotalLostPackets_SCH 0
scalar SlicingScenario.node[12].nic.mac1609_4 DroppedPacketsInMac_SCH 0
scalar SlicingScenario.node[12].nic.mac1609_4 TooLittleTime_SCH 0
scalar SlicingScenario.node[12].nic.mac1609_4 TimesIntoBackoff_SCH 0
scalar SlicingScenario.node[12].nic.mac1609_4 SlotsBackoff_SCH 0
scalar SlicingScenario.node[12].nic.mac1609_4 NumInternalContention_SCH 0
scalar SlicingScenario.node[12].nic.mac1609_4 RemainingPacketsInEDCA_SCH 0
scalar SlicingScenario.node[12].nic.mac1609_4 totalBusyTime_SCH 4.728624
scalar SlicingScenario.node[12].veinsmobility startTime 13
scalar SlicingScenario.node[12].veinsmobility totalTime 91
scalar SlicingScenario.node[12].veinsmobility stopTime 105
scalar SlicingScenario.node[12].veinsmobility minSpeed 10.615760612898
scalar SlicingScenario.node[12].veinsmobility maxSpeed 11.108486552038
scalar SlicingScenario.node[12].veinsmobility totalDistance 976.34399259162
scalar SlicingScenario.node[12].veinsmobility totalCO2Emission 159.52070445885
scalar SlicingScenario.node[13].appl txPackets_91 0
scalar SlicingScenario.node[13].appl rxPackets_91 0
scalar SlicingScenario.node[13].appl rxNeighborPackets_91 0
scalar SlicingScenario.node[13].appl meanDelay_91 0
scalar SlicingScenario.node[13].appl meanJitter_91 0
scalar SlicingScenario.node[13].appl meanRxPacketSize_91 0
scalar SlicingScenario.node[13].appl meanTxPacketSize_91 0
scalar SlicingScenario.node[13].appl meanRxThroughput_91 0
scalar SlicingScenario.node[13].appl meanTxThroughput_91 0
scalar SlicingScenario.node[13].appl rxTimeOfService_91 0
scalar SlicingScenario.node[13].appl txTimeOfService_91 0
scalar SlicingScenario.node[13].appl txPackets_40_91 0
scalar SlicingScenario.node[13].appl rxPackets_40_91 73
scalar SlicingScenario.node[13].appl rxNeighborPackets_40_91 1057
scalar SlicingScenario.node[13].appl meanDelay_40_91 0.002070938658
scalar SlicingScenario.node[13].appl meanJitter_40_91 2.8804392e-05
scalar SlicingScenario.node[13].appl meanRxPacketSize_40_91 1510
scalar SlicingScenario.node[13].appl meanTxPacketSize_40_91 0
scalar SlicingScenario.node[13].appl meanRxThroughput_40_91 12247.777720549
scalar SlicingScenario.node[13].appl meanTxThroughput_40_91 0
scalar SlicingScenario.node[13].appl rxTimeOfService_40_91 72.000000336427
scalar SlicingScenario.node[13].appl txTimeOfService_40_91 0
scalar SlicingScenario.node[13].nic.phy80211p busyTime 0.052115999999998
scalar SlicingScenario.node[13].nic.phy80211p ncollisions 0
scalar SlicingScenario.node[13].nic.phy80211p UnderSensitivityPackets 230
scalar SlicingScenario.node[13].nic.mac1609_4 ReceivedUnicastPackets_CCH 0
scalar SlicingScenario.node[13].nic.mac1609_4 ReceivedBroadcasts_CCH 0
scalar SlicingScenario.node[13].nic.mac1609_4 SentPackets_CCH 0
scalar SlicingScenario.node[13].nic.mac1609_4 SentAcknowledgements_CCH 0
scalar SlicingScenario.node[13].nic.mac1609_4 SNIRLostPackets_CCH 0
scalar SlicingScenario.node[13].nic.mac1609_4 RXTXLostPackets_CCH 0
scalar SlicingScenario.node[13].nic.mac1609_4 TotalLostPackets_CCH 0
scalar SlicingScenario.node[13].nic.mac1609_4 DroppedPacketsInMac_CCH 0
scalar SlicingScenario.node[13].nic.mac1609_4 TooLittleTime_CCH 0
scalar SlicingScenario.node[13].nic.mac1609_4 TimesIntoBackoff_CCH 0
scalar SlicingScenario.node[13].nic.mac1609_4 SlotsBackoff_CCH 0
scalar SlicingScenario.node[13].nic.mac1609_4 NumInternalContention_CCH 0
scalar SlicingScenario.node[13].nic.mac1609_4 RemainingPacketsInEDCA_CCH 0
scalar SlicingScenario.node[13].nic.mac1609_4 totalBusyTime_CCH 0
scalar SlicingScenario.node[13].nic.mac1609_4 ReceivedUnicastPackets_SCH 0
scalar SlicingScenario.node[13].nic.mac1609_4 ReceivedBroadcasts_SCH 2323
scalar SlicingScenario.node[13].nic.mac1609_4 SentPackets_SCH 0
scalar SlicingScenario.node[13].nic.mac1609_4 SentAcknowledgements_SCH 0
scalar SlicingScenario.node[13].nic.mac1609_4 SNIRLostPackets_SCH 0
scalar SlicingScenario.node[13].nic.mac1609_4 RXTXLostPackets_SCH 0
scalar SlicingScenario.node[13].nic.mac1609_4 TotalLostPackets_SCH 0
scalar SlicingScenario.node[13].nic.mac1609_4 DroppedPacketsInMac_SCH 0
scalar SlicingScenario.node[13].nic.mac1609_4 TooLittleTime_SCH 0
scalar SlicingScenario.node[13].nic.mac1609_4 TimesIntoBackoff_SCH 0
scalar SlicingScenario.node[13].nic.mac1609_4 SlotsBackoff_SCH 0
scalar SlicingScenario.node[13].nic.mac1609_4 NumInternalContention_SCH 0
scalar SlicingScenario.node[13].nic.mac1609_4 RemainingPacketsInEDCA_SCH 0
scalar SlicingScenario.node[13].nic.mac1609_4 totalBusyTime_SCH 4.794672
scalar SlicingScenario.node[13].veinsmobility startTime 14
scalar SlicingScenario.node[13].veinsmobility totalTime 91
scalar SlicingScenario.node[13].veinsmobility stopTime 106
scalar SlicingScenario.node[13].veinsmobility minSpeed 10.611546900603
scalar SlicingScenario.node[13].veinsmobility maxSpeed 11.10371175142
scalar SlicingScenario.node[13].veinsmobility totalDistance 977.93918508439
scalar SlicingScenario.node[13].veinsmobility totalCO2Emission 157.95755514662
scalar SlicingScenario.node[15].appl txPackets_103 0
scalar SlicingScenario.node[15].appl rxPackets_103 0
scalar SlicingScenario.node[15].appl rxNeighborPackets_103 0
scalar SlicingScenario.node[15].appl meanDelay_103 0
scalar SlicingScenario.node[15].appl meanJitter_103 0
scalar SlicingScenario.node[15].appl meanRxPacketSize_103 0
scalar SlicingScenario.node[15].appl meanTxPacketSize_103 0
scalar SlicingScenario.node[15].appl meanRxThroughput_103 0
scalar SlicingScenario.node[15].appl meanTxThroughput_103 0
scalar SlicingScenario.node[15].appl rxTimeOfService_103 0
scalar SlicingScenario.node[15].appl txTimeOfService_103 0
scalar SlicingScenario.node[15].appl txPackets_40_103 0
scalar SlicingScenario.node[15].appl rxPackets_40_103 71
scalar SlicingScenario.node[15].appl rxNeighborPackets_40_103 1095
scalar SlicingScenario.node[15].appl meanDelay_40_103 0.002072174865
scalar SlicingScenario.node[15].appl meanJitter_40_103 2.9868991e-05
scalar SlicingScenario.node[15].appl meanRxPacketSize_40_103 1510
scalar SlicingScenario.node[15].appl meanTxPacketSize_40_103 0
scalar SlicingScenario.node[15].appl meanRxThroughput_40_103 12252.57153228
scalar SlicingScenario.node[15].appl meanTxThroughput_40_103 0
scalar SlicingScenario.node[15].appl rxTimeOfService_40_103 69.999999407502
scalar SlicingScenario.node[15].appl txTimeOfService_40_103 0
scalar SlicingScenario.node[15].nic.phy80211p busyTime 0.053506956521737
scalar SlicingScenario.node[15].nic.phy80211p ncollisions 0
scalar SlicingScenario.node[15].nic.phy80211p UnderSensitivityPackets 234
scalar SlicingScenario.node[15].nic.mac1609_4 ReceivedUnicastPackets_CCH 0
scalar SlicingScenario.node[15].nic.mac1609_4 ReceivedBroadcasts_CCH 0
scalar SlicingScenario.node[15].nic.mac1609_4 SentPackets_CCH 0
scalar SlicingScenario.node[15].nic.mac1609_4 SentAcknowledgements_CCH 0
scalar SlicingScenario.node[15].nic.mac1609_4 SNIRLostPackets_CCH 0
scalar SlicingScenario.node[15].nic.mac1609_4 RXTXLostPackets_CCH 0
scalar SlicingScenario.node[15].nic.mac1609_4 TotalLostPackets_CCH 0
scalar SlicingScenario.node[15].nic.mac1609_4 DroppedPacketsInMac_CCH 0
scalar SlicingScenario.node[15].nic.mac1609_4 TooLittleTime_CCH 0
scalar SlicingScenario.node[15].nic.mac1609_4 TimesIntoBackoff_CCH 0
scalar SlicingScenario.node[15].nic.mac1609_4 SlotsBackoff_CCH 0
scalar SlicingScenario.node[15].nic.mac1609_4 NumInternalContention_CCH 0
scalar SlicingScenario.node[15].nic.mac1609_4 RemainingPacketsInEDCA_CCH 0
scalar SlicingScenario.node[15].nic.mac1609_4 totalBusyTime_CCH 0
scalar SlicingScenario.node[15].nic.mac1609_4 ReceivedUnicastPackets_SCH 0
scalar SlicingScenario.node[15].nic.mac1609_4 ReceivedBroadcasts_SCH 2385
scalar SlicingScenario.node[15].nic.mac1609_4 SentPackets_SCH 0
scalar SlicingScenario.node[15].nic.mac1609_4 SentAcknowledgements_SCH 0
scalar SlicingScenario.node[15].nic.mac1609_4 SNIRLostPackets_SCH 0
scalar SlicingScenario.node[15].nic.mac1609_4 RXTXLostPackets_SCH 0
scalar SlicingScenario.node[15].nic.mac1609_4 TotalLostPackets_SCH 0
scalar SlicingScenario.node[15].nic.mac1609_4 DroppedPacketsInMac_SCH 0
scalar SlicingScenario.node[15].nic.mac1609_4 TooLittleTime_SCH 0
scalar SlicingScenario.node[15].nic.mac1609_4 TimesIntoBackoff_SCH 0
scalar SlicingScenario.node[15].nic.mac1609_4 SlotsBackoff_SCH 0
scalar SlicingScenario.node[15].nic.mac1609_4 NumInternalContention_SCH 0
scalar SlicingScenario.node[15].nic.mac1609_4 RemainingPacketsInEDCA_SCH 0
scalar SlicingScenario.node[15].nic.mac1609_4 totalBusyTime_SCH 4.92264
scalar SlicingScenario.node[15].veinsmobility startTime 16
scalar SlicingScenario.node[15].veinsmobility totalTime 91
scalar SlicingScenario.node[15].veinsmobility stopTime 108
scalar SlicingScenario.node[15].veinsmobility minSpeed 10.611125173178
scalar SlicingScenario.node[15].veinsmobility maxSpeed 11.096080841743
scalar SlicingScenario.node[15].veinsmobility totalDistance 977.27534431076
scalar SlicingScenario.node[15].veinsmobility totalCO2Emission 160.31124214821
scalar SlicingScenario.node[14].appl txPackets_97 0
scalar SlicingScenario.node[14].appl rxPackets_97 0
scalar SlicingScenario.node[14].appl rxNeighborPackets_97 0
scalar SlicingScenario.node[14].appl meanDelay_97 0
scalar SlicingScenario.node[14].appl meanJitter_97 0
scalar SlicingScenario.node[14].appl meanRxPacketSize_97 0
scalar SlicingScenario.node[14].appl meanTxPacketSize_97 0
scalar SlicingScenario.node[14].appl meanRxThroughput_97 0
scalar SlicingScenario.node[14].appl meanTxThroughput_97 0
scalar SlicingScenario.node[14].appl rxTimeOfService_97 0
scalar SlicingScenario.node[14].appl txTimeOfService_97 0
scalar SlicingScenario.node[14].appl txPackets_41_97 0
scalar SlicingScenario.node[14].appl rxPackets_41_97 73
scalar SlicingScenario.node[14].appl rxNeighborPackets_41_97 1152
scalar SlicingScenario.node[14].appl meanDelay_41_97 0.002464399221
scalar SlicingScenario.node[14].appl meanJitter_41_97 6.4699023e-05
scalar SlicingScenario.node[14].appl meanRxPacketSize_41_97 1510
scalar SlicingScenario.node[14].appl meanTxPacketSize_41_97 0
scalar SlicingScenario.node[14].appl meanRxThroughput_41_97 12247.773287268
scalar SlicingScenario.node[14].appl meanTxThroughput_41_97 0
scalar SlicingScenario.node[14].appl rxTimeOfService_41_97 72.000026397998
scalar SlicingScenario.node[14].appl txTimeOfService_41_97 0
scalar SlicingScenario.node[14].nic.phy80211p busyTime 0.053131354838708
scalar SlicingScenario.node[14].nic.phy80211p ncollisions 0
scalar SlicingScenario.node[14].nic.phy80211p UnderSensitivityPackets 232
scalar SlicingScenario.node[14].nic.mac1609_4 ReceivedUnicastPackets_CCH 0
scalar SlicingScenario.node[14].nic.mac1609_4 ReceivedBroadcasts_CCH 0
scalar SlicingScenario.node[14].nic.mac1609_4 SentPackets_CCH 0
scalar SlicingScenario.node[14].nic.mac1609_4 SentAcknowledgements_CCH 0
scalar SlicingScenario.node[14].nic.mac1609_4 SNIRLostPackets_CCH 0
scalar SlicingScenario.node[14].nic.mac1609_4 RXTXLostPackets_CCH 0
scalar SlicingScenario.node[14].nic.mac1609_4 TotalLostPackets_CCH 0
scalar SlicingScenario.node[14].nic.mac1609_4 DroppedPacketsInMac_CCH 0
scalar SlicingScenario.node[14].nic.mac1609_4 TooLittleTime_CCH 0
scalar SlicingScenario.node[14].nic.mac1609_4 TimesIntoBackoff_CCH 0
scalar SlicingScenario.node[14].nic.mac1609_4 SlotsBackoff_CCH 0
scalar SlicingScenario.node[14].nic.mac1609_4 NumInternalContention_CCH 0
scalar SlicingScenario.node[14].nic.mac1609_4 RemainingPacketsInEDCA_CCH 0
scalar SlicingScenario.node[14].nic.mac1609_4 totalBusyTime_CCH 0
scalar SlicingScenario.node[14].nic.mac1609_4 ReceivedUnicastPackets_SCH 0
scalar SlicingScenario.node[14].nic.mac1609_4 ReceivedBroadcasts_SCH 2394
scalar SlicingScenario.node[14].nic.mac1609_4 SentPackets_SCH 0
scalar SlicingScenario.node[14].nic.mac1609_4 SentAcknowledgements_SCH 0
scalar SlicingScenario.node[14].nic.mac1609_4 SNIRLostPackets_SCH 0
scalar SlicingScenario.node[14].nic.mac1609_4 RXTXLostPackets_SCH 0
scalar SlicingScenario.node[14].nic.mac1609_4 TotalLostPackets_SCH 0
scalar SlicingScenario.node[14].nic.mac1609_4 DroppedPacketsInMac_SCH 0
scalar SlicingScenario.node[14].nic.mac1609_4 TooLittleTime_SCH 0
scalar SlicingScenario.node[14].nic.mac1609_4 TimesIntoBackoff_SCH 0
scalar SlicingScenario.node[14].nic.mac1609_4 SlotsBackoff_SCH 0
scalar SlicingScenario.node[14].nic.mac1609_4 NumInternalContention_SCH 0
scalar SlicingScenario.node[14].nic.mac1609_4 RemainingPacketsInEDCA_SCH 0
scalar SlicingScenario.node[14].nic.mac1609_4 totalBusyTime_SCH 4.941216
scalar SlicingScenario.node[14].veinsmobility startTime 15
scalar SlicingScenario.node[14].veinsmobility totalTime 92
scalar SlicingScenario.node[14].veinsmobility stopTime 108
scalar SlicingScenario.node[14].veinsmobility minSpeed 10.612183035831
scalar SlicingScenario.node[14].veinsmobility maxSpeed 11.10789304845
scalar SlicingScenario.node[14].veinsmobility totalDistance 985.79654667345
scalar SlicingScenario.node[14].veinsmobility totalCO2Emission 161.15016551455
scalar SlicingScenario.node[16].appl txPackets_109 0
scalar SlicingScenario.node[16].appl rxPackets_109 0
scalar SlicingScenario.node[16].appl rxNeighborPackets_109 0
scalar SlicingScenario.node[16].appl meanDelay_109 0
scalar SlicingScenario.node[16].appl meanJitter_109 0
scalar SlicingScenario.node[16].appl meanRxPacketSize_109 0
scalar SlicingScenario.node[16].appl meanTxPacketSize_109 0
scalar SlicingScenario.node[16].appl meanRxThroughput_109 0
scalar SlicingScenario.node[16].appl meanTxThroughput_109 0
scalar SlicingScenario.node[16].appl rxTimeOfService_109 0
scalar SlicingScenario.node[16].appl txTimeOfService_109 0
scalar SlicingScenario.node[16].appl txPackets_40_109 0
scalar SlicingScenario.node[16].appl rxPackets_40_109 70
scalar SlicingScenario.node[16].appl rxNeighborPackets_40_109 1114
scalar SlicingScenario.node[16].appl meanDelay_40_109 0.002850549654
scalar SlicingScenario.node[16].appl meanJitter_40_109 7.5247288e-05
scalar SlicingScenario.node[16].appl meanRxPacketSize_40_109 1510
scalar SlicingScenario.node[16].appl meanTxPacketSize_40_109 0
scalar SlicingScenario.node[16].appl meanRxThroughput_40_109 12255.078599615
scalar SlicingScenario.node[16].appl meanTxThroughput_40_109 0
scalar SlicingScenario.node[16].appl rxTimeOfService_40_109 68.999965453224
scalar SlicingScenario.node[16].appl txTimeOfService_40_109 0
scalar SlicingScenario.node[16].nic.phy80211p busyTime 0.054179999999998
scalar SlicingScenario.node[16].nic.phy80211p ncollisions 0
scalar SlicingScenario.node[16].nic.phy80211p UnderSensitivityPackets 236
scalar SlicingScenario.node[16].nic.mac1609_4 ReceivedUnicastPackets_CCH 0
scalar SlicingScenario.node[16].nic.mac1609_4 ReceivedBroadcasts_CCH 0
scalar SlicingScenario.node[16].nic.mac1609_4 SentPackets_CCH 0
scalar SlicingScenario.node[16].nic.mac1609_4 SentAcknowledgements_CCH 0
scalar SlicingScenario.node[16].nic.mac1609_4 SNIRLostPackets_CCH 0
scalar SlicingScenario.node[16].nic.mac1609_4 RXTXLostPackets_CCH 0
scalar SlicingScenario.node[16].nic.mac1609_4 TotalLostPackets_CCH 0
scalar SlicingScenario.node[16].nic.mac1609_4 DroppedPacketsInMac_CCH 0
scalar SlicingScenario.node[16].nic.mac1609_4 TooLittleTime_CCH 0
scalar SlicingScenario.node[16].nic.mac1609_4 TimesIntoBackoff_CCH 0
scalar SlicingScenario.node[16].nic.mac1609_4 SlotsBackoff_CCH 0
scalar SlicingScenario.node[16].nic.mac1609_4 NumInternalContention_CCH 0
scalar SlicingScenario.node[16].nic.mac1609_4 RemainingPacketsInEDCA_CCH 0
scalar SlicingScenario.node[16].nic.mac1609_4 totalBusyTime_CCH 0
scalar SlicingScenario.node[16].nic.mac1609_4 ReceivedUnicastPackets_SCH 0
scalar SlicingScenario.node[16].nic.mac1609_4 ReceivedBroadcasts_SCH 2415
scalar SlicingScenario.node[16].nic.mac1609_4 SentPackets_SCH 0
scalar SlicingScenario.node[16].nic.mac1609_4 SentAcknowledgements_SCH 0
scalar SlicingScenario.node[16].nic.mac1609_4 SNIRLostPackets_SCH 0
scalar SlicingScenario.node[16].nic.mac1609_4 RXTXLostPackets_SCH 0
scalar SlicingScenario.node[16].nic.mac1609_4 TotalLostPackets_SCH 0
scalar SlicingScenario.node[16].nic.mac1609_4 DroppedPacketsInMac_SCH 0
scalar SlicingScenario.node[16].nic.mac1609_4 TooLittleTime_SCH 0
scalar SlicingScenario.node[16].nic.mac1609_4 TimesIntoBackoff_SCH 0
scalar SlicingScenario.node[16].nic.mac1609_4 SlotsBackoff_SCH 0
scalar SlicingScenario.node[16].nic.mac1609_4 NumInternalContention_SCH 0
scalar SlicingScenario.node[16].nic.mac1609_4 RemainingPacketsInEDCA_SCH 0
scalar SlicingScenario.node[16].nic.mac1609_4 totalBusyTime_SCH 4.98456
scalar SlicingScenario.node[16].veinsmobility startTime 17
scalar SlicingScenario.node[16].veinsmobility totalTime 91
scalar SlicingScenario.node[16].veinsmobility stopTime 109
scalar SlicingScenario.node[16].veinsmobility minSpeed 10.618490744862
scalar SlicingScenario.node[16].veinsmobility maxSpeed 11.109702571658
scalar SlicingScenario.node[16].veinsmobility totalDistance 980.00401932504
scalar SlicingScenario.node[16].veinsmobility totalCO2Emission 158.63929294539
scalar SlicingScenario.node[17].appl txPackets_115 0
scalar SlicingScenario.node[17].appl rxPackets_115 0
scalar SlicingScenario.node[17].appl rxNeighborPackets_115 0
scalar SlicingScenario.node[17].appl meanDelay_115 0
scalar SlicingScenario.node[17].appl meanJitter_115 0
scalar SlicingScenario.node[17].appl meanRxPacketSize_115 0
scalar SlicingScenario.node[17].appl meanTxPacketSize_115 0
scalar SlicingScenario.node[17].appl meanRxThroughput_115 0
scalar SlicingScenario.node[17].appl meanTxThroughput_115 0
scalar SlicingScenario.node[17].appl rxTimeOfService_115 0
scalar SlicingScenario.node[17].appl txTimeOfService_115 0
scalar SlicingScenario.node[17].appl txPackets_40_115 0
scalar SlicingScenario.node[17].appl rxPackets_40_115 68
scalar SlicingScenario.node[17].appl rxNeighborPackets_40_115 1134
scalar SlicingScenario.node[17].appl meanDelay_40_115 0.057480730476
scalar SlicingScenario.node[17].appl meanJitter_40_115 0.000889877945
scalar SlicingScenario.node[17].appl meanRxPacketSize_40_115 1510
scalar SlicingScenario.node[17].appl meanTxPacketSize_40_115 0
scalar SlicingScenario.node[17].appl meanRxThroughput_40_115 12260.298412356
scalar SlicingScenario.node[17].appl meanTxThroughput_40_115 0
scalar SlicingScenario.node[17].appl rxTimeOfService_40_115 67.000000519739
scalar SlicingScenario.node[17].appl txTimeOfService_40_115 0
scalar SlicingScenario.node[17].nic.phy80211p busyTime 0.054853043478259
scalar SlicingScenario.node[17].nic.phy80211p ncollisions 0
scalar SlicingScenario.node[17].nic.phy80211p UnderSensitivityPackets 238
scalar SlicingScenario.node[17].nic.mac1609_4 ReceivedUnicastPackets_CCH 0
scalar SlicingScenario.node[17].nic.mac1609_4 ReceivedBroadcasts_CCH 0
scalar SlicingScenario.node[17].nic.mac1609_4 SentPackets_CCH 0
scalar SlicingScenario.node[17].nic.mac1609_4 SentAcknowledgements_CCH 0
scalar SlicingScenario.node[17].nic.mac1609_4 SNIRLostPackets_CCH 0
scalar SlicingScenario.node[17].nic.mac1609_4 RXTXLostPackets_CCH 0
scalar SlicingScenario.node[17].nic.mac1609_4 TotalLostPackets_CCH 0
scalar SlicingScenario.node[17].nic.mac1609_4 DroppedPacketsInMac_CCH 0
scalar SlicingScenario.node[17].nic.mac1609_4 TooLittleTime_CCH 0
scalar SlicingScenario.node[17].nic.mac1609_4 TimesIntoBackoff_CCH 0
scalar SlicingScenario.node[17].nic.mac1609_4 SlotsBackoff_CCH 0
scalar SlicingScenario.node[17].nic.mac1609_4 NumInternalContention_CCH 0
scalar SlicingScenario.node[17].nic.mac1609_4 RemainingPacketsInEDCA_CCH 0
scalar SlicingScenario.node[17].nic.mac1609_4 totalBusyTime_CCH 0
scalar SlicingScenario.node[17].nic.mac1609_4 ReceivedUnicastPackets_SCH 0
scalar SlicingScenario.node[17].nic.mac1609_4 ReceivedBroadcasts_SCH 2445
scalar SlicingScenario.node[17].nic.mac1609_4 SentPackets_SCH 0
scalar SlicingScenario.node[17].nic.mac1609_4 SentAcknowledgements_SCH 0
scalar SlicingScenario.node[17].nic.mac1609_4 SNIRLostPackets_SCH 0
scalar SlicingScenario.node[17].nic.mac1609_4 RXTXLostPackets_SCH 0
scalar SlicingScenario.node[17].nic.mac1609_4 TotalLostPackets_SCH 0
scalar SlicingScenario.node[17].nic.mac1609_4 DroppedPacketsInMac_SCH 0
scalar SlicingScenario.node[17].nic.mac1609_4 TooLittleTime_SCH 0
scalar SlicingScenario.node[17].nic.mac1609_4 TimesIntoBackoff_SCH 0
scalar SlicingScenario.node[17].nic.mac1609_4 SlotsBackoff_SCH 0
scalar SlicingScenario.node[17].nic.mac1609_4 NumInternalContention_SCH 0
scalar SlicingScenario.node[17].nic.mac1609_4 RemainingPacketsInEDCA_SCH 0
scalar SlicingScenario.node[17].nic.mac1609_4 totalBusyTime_SCH 5.04648
scalar SlicingScenario.node[17].veinsmobility startTime 18
scalar SlicingScenario.node[17].veinsmobility totalTime 91
scalar SlicingScenario.node[17].veinsmobility stopTime 110
scalar SlicingScenario.node[17].veinsmobility minSpeed 10.610150867272
scalar SlicingScenario.node[17].veinsmobility maxSpeed 11.09357069015
scalar SlicingScenario.node[17].veinsmobility totalDistance 978.66935981142
scalar SlicingScenario.node[17].veinsmobility totalCO2Emission 160.26629830341
scalar SlicingScenario.node[18].appl txPackets_121 0
scalar SlicingScenario.node[18].appl rxPackets_121 0
scalar SlicingScenario.node[18].appl rxNeighborPackets_121 0
scalar SlicingScenario.node[18].appl meanDelay_121 0
scalar SlicingScenario.node[18].appl meanJitter_121 0
scalar SlicingScenario.node[18].appl meanRxPacketSize_121 0
scalar SlicingScenario.node[18].appl meanTxPacketSize_121 0
scalar SlicingScenario.node[18].appl meanRxThroughput_121 0
scalar SlicingScenario.node[18].appl meanTxThroughput_121 0
scalar SlicingScenario.node[18].appl rxTimeOfService_121 0
scalar SlicingScenario.node[18].appl txTimeOfService_121 0
scalar SlicingScenario.node[18].appl txPackets_41_121 0
scalar SlicingScenario.node[18].appl rxPackets_41_121 68
scalar SlicingScenario.node[18].appl rxNeighborPackets_41_121 1186
scalar SlicingScenario.node[18].appl meanDelay_41_121 0.002828154623
scalar SlicingScenario.node[18].appl meanJitter_41_121 7.6876955e-05
scalar SlicingScenario.node[18].appl meanRxPacketSize_41_121 1510
scalar SlicingScenario.node[18].appl meanTxPacketSize_41_121 0
scalar SlicingScenario.node[18].appl meanRxThroughput_41_121 12260.116888668
scalar SlicingScenario.node[18].appl meanTxThroughput_41_121 0
scalar SlicingScenario.node[18].appl rxTimeOfService_41_121 67.000992523917
scalar SlicingScenario.node[18].appl txTimeOfService_41_121 0
scalar SlicingScenario.node[18].nic.phy80211p busyTime 0.055503652173911
scalar SlicingScenario.node[18].nic.phy80211p ncollisions 0
scalar SlicingScenario.node[18].nic.phy80211p UnderSensitivityPackets 240
scalar SlicingScenario.node[18].nic.mac1609_4 ReceivedUnicastPackets_CCH 0
scalar SlicingScenario.node[18].nic.mac1609_4 ReceivedBroadcasts_CCH 0
scalar SlicingScenario.node[18].nic.mac1609_4 SentPackets_CCH 0
scalar SlicingScenario.node[18].nic.mac1609_4 SentAcknowledgements_CCH 0
scalar SlicingScenario.node[18].nic.mac1609_4 SNIRLostPackets_CCH 0
scalar SlicingScenario.node[18].nic.mac1609_4 RXTXLostPackets_CCH 0
scalar SlicingScenario.node[18].nic.mac1609_4 TotalLostPackets_CCH 0
scalar SlicingScenario.node[18].nic.mac1609_4 DroppedPacketsInMac_CCH 0
scalar SlicingScenario.node[18].nic.mac1609_4 TooLittleTime_CCH 0
scalar SlicingScenario.node[18].nic.mac1609_4 TimesIntoBackoff_CCH 0
scalar SlicingScenario.node[18].nic.mac1609_4 SlotsBackoff_CCH 0
scalar SlicingScenario.node[18].nic.mac1609_4 NumInternalContention_CCH 0
scalar SlicingScenario.node[18].nic.mac1609_4 RemainingPacketsInEDCA_CCH 0
scalar SlicingScenario.node[18].nic.mac1609_4 totalBusyTime_CCH 0
scalar SlicingScenario.node[18].nic.mac1609_4 ReceivedUnicastPackets_SCH 0
scalar SlicingScenario.node[18].nic.mac1609_4 ReceivedBroadcasts_SCH 2474
scalar SlicingScenario.node[18].nic.mac1609_4 SentPackets_SCH 0
scalar SlicingScenario.node[18].nic.mac1609_4 SentAcknowledgements_SCH 0
scalar SlicingScenario.node[18].nic.mac1609_4 SNIRLostPackets_SCH 0
scalar SlicingScenario.node[18].nic.mac1609_4 RXTXLostPackets_SCH 0
scalar SlicingScenario.node[18].nic.mac1609_4 TotalLostPackets_SCH 0
scalar SlicingScenario.node[18].nic.mac1609_4 DroppedPacketsInMac_SCH 0
scalar SlicingScenario.node[18].nic.mac1609_4 TooLittleTime_SCH 0
scalar SlicingScenario.node[18].nic.mac1609_4 TimesIntoBackoff_SCH 0
scalar SlicingScenario.node[18].nic.mac1609_4 SlotsBackoff_SCH 0
scalar SlicingScenario.node[18].nic.mac1609_4 NumInternalContention_SCH 0
scalar SlicingScenario.node[18].nic.mac1609_4 RemainingPacketsInEDCA_SCH 0
scalar SlicingScenario.node[18].nic.mac1609_4 totalBusyTime_SCH 5.106336
scalar SlicingScenario.node[18].veinsmobility startTime 19
scalar SlicingScenario.node[18].veinsmobility totalTime 91
scalar SlicingScenario.node[18].veinsmobility stopTime 111
scalar SlicingScenario.node[18].veinsmobility minSpeed 10.634054131587
scalar SlicingScenario.node[18].veinsmobility maxSpeed 11.105231545297
scalar SlicingScenario.node[18].veinsmobility totalDistance 979.34115437952
scalar SlicingScenario.node[18].veinsmobility totalCO2Emission 158.54028596393
scalar SlicingScenario.node[19].appl txPackets_127 0
scalar SlicingScenario.node[19].appl rxPackets_127 0
scalar SlicingScenario.node[19].appl rxNeighborPackets_127 0
scalar SlicingScenario.node[19].appl meanDelay_127 0
scalar SlicingScenario.node[19].appl meanJitter_127 0
scalar SlicingScenario.node[19].appl meanRxPacketSize_127 0
scalar SlicingScenario.node[19].appl meanTxPacketSize_127 0
scalar SlicingScenario.node[19].appl meanRxThroughput_127 0
scalar SlicingScenario.node[19].appl meanTxThroughput_127 0
scalar SlicingScenario.node[19].appl rxTimeOfService_127 0
scalar SlicingScenario.node[19].appl txTimeOfService_127 0
scalar SlicingScenario.node[19].appl txPackets_40_127 0
scalar SlicingScenario.node[19].appl rxPackets_40_127 68
scalar SlicingScenario.node[19].appl rxNeighborPackets_40_127 1188
scalar SlicingScenario.node[19].appl meanDelay_40_127 0.002072131717
scalar SlicingScenario.node[19].appl meanJitter_40_127 3.1174725e-05
scalar SlicingScenario.node[19].appl meanRxPacketSize_40_127 1510
scalar SlicingScenario.node[19].appl meanTxPacketSize_40_127 0
scalar SlicingScenario.node[19].appl meanRxThroughput_40_127 12260.300055986
scalar SlicingScenario.node[19].appl meanTxThroughput_40_127 0
scalar SlicingScenario.node[19].appl rxTimeOfService_40_127 66.999991537642
scalar SlicingScenario.node[19].appl txTimeOfService_40_127 0
scalar SlicingScenario.node[19].nic.phy80211p busyTime 0.05617187096774
scalar SlicingScenario.node[19].nic.phy80211p ncollisions 0
scalar SlicingScenario.node[19].nic.phy80211p UnderSensitivityPackets 254
scalar SlicingScenario.node[19].nic.mac1609_4 ReceivedUnicastPackets_CCH 0
scalar SlicingScenario.node[19].nic.mac1609_4 ReceivedBroadcasts_CCH 0
[...]
scalar SlicingScenario.rsu[0].appl txTimeOfService_40_163 447
scalar SlicingScenario.rsu[0].appl txPackets_40_187 440
scalar SlicingScenario.rsu[0].appl rxPackets_40_187 0
scalar SlicingScenario.rsu[0].appl rxNeighborPackets_40_187 0
scalar SlicingScenario.rsu[0].appl meanDelay_40_187 0
scalar SlicingScenario.rsu[0].appl meanJitter_40_187 0
scalar SlicingScenario.rsu[0].appl meanRxPacketSize_40_187 0
scalar SlicingScenario.rsu[0].appl meanTxPacketSize_40_187 1510
scalar SlicingScenario.rsu[0].appl meanRxThroughput_40_187 0
scalar SlicingScenario.rsu[0].appl meanTxThroughput_40_187 12107.517084282
scalar SlicingScenario.rsu[0].appl rxTimeOfService_40_187 0
scalar SlicingScenario.rsu[0].appl txTimeOfService_40_187 439
scalar SlicingScenario.rsu[0].appl txPackets_40_193 438
scalar SlicingScenario.rsu[0].appl rxPackets_40_193 0
scalar SlicingScenario.rsu[0].appl rxNeighborPackets_40_193 0
scalar SlicingScenario.rsu[0].appl meanDelay_40_193 0
scalar SlicingScenario.rsu[0].appl meanJitter_40_193 0
scalar SlicingScenario.rsu[0].appl meanRxPacketSize_40_193 0
scalar SlicingScenario.rsu[0].appl meanTxPacketSize_40_193 1510
scalar SlicingScenario.rsu[0].appl meanRxThroughput_40_193 0
scalar SlicingScenario.rsu[0].appl meanTxThroughput_40_193 12107.643020595
scalar SlicingScenario.rsu[0].appl rxTimeOfService_40_193 0
scalar SlicingScenario.rsu[0].appl txTimeOfService_40_193 437
scalar SlicingScenario.rsu[0].appl txPackets_40_199 436
scalar SlicingScenario.rsu[0].appl rxPackets_40_199 0
scalar SlicingScenario.rsu[0].appl rxNeighborPackets_40_199 0
scalar SlicingScenario.rsu[0].appl meanDelay_40_199 0
scalar SlicingScenario.rsu[0].appl meanJitter_40_199 0
scalar SlicingScenario.rsu[0].appl meanRxPacketSize_40_199 0
scalar SlicingScenario.rsu[0].appl meanTxPacketSize_40_199 1510
scalar SlicingScenario.rsu[0].appl meanRxThroughput_40_199 0
scalar SlicingScenario.rsu[0].appl meanTxThroughput_40_199 12107.770114943
scalar SlicingScenario.rsu[0].appl rxTimeOfService_40_199 0
scalar SlicingScenario.rsu[0].appl txTimeOfService_40_199 435
scalar SlicingScenario.rsu[0].appl txPackets_40_205 434
scalar SlicingScenario.rsu[0].appl rxPackets_40_205 0
scalar SlicingScenario.rsu[0].appl rxNeighborPackets_40_205 0
scalar SlicingScenario.rsu[0].appl meanDelay_40_205 0
scalar SlicingScenario.rsu[0].appl meanJitter_40_205 0
scalar SlicingScenario.rsu[0].appl meanRxPacketSize_40_205 0
scalar SlicingScenario.rsu[0].appl meanTxPacketSize_40_205 1510
scalar SlicingScenario.rsu[0].appl meanRxThroughput_40_205 0
scalar SlicingScenario.rsu[0].appl meanTxThroughput_40_205 12107.898383372
scalar SlicingScenario.rsu[0].appl rxTimeOfService_40_205 0
scalar SlicingScenario.rsu[0].appl txTimeOfService_40_205 433
scalar SlicingScenario.rsu[0].appl txPackets_40_217 430
scalar SlicingScenario.rsu[0].appl rxPackets_40_217 0
scalar SlicingScenario.rsu[0].appl rxNeighborPackets_40_217 0
scalar SlicingScenario.rsu[0].appl meanDelay_40_217 0
scalar SlicingScenario.rsu[0].appl meanJitter_40_217 0
scalar SlicingScenario.rsu[0].appl meanRxPacketSize_40_217 0
scalar SlicingScenario.rsu[0].appl meanTxPacketSize_40_217 1510
scalar SlicingScenario.rsu[0].appl meanRxThroughput_40_217 0
scalar SlicingScenario.rsu[0].appl meanTxThroughput_40_217 12108.158508159
scalar SlicingScenario.rsu[0].appl rxTimeOfService_40_217 0
scalar SlicingScenario.rsu[0].appl txTimeOfService_40_217 429
scalar SlicingScenario.rsu[0].appl txPackets_40_223 428
scalar SlicingScenario.rsu[0].appl rxPackets_40_223 0
scalar SlicingScenario.rsu[0].appl rxNeighborPackets_40_223 0
scalar SlicingScenario.rsu[0].appl meanDelay_40_223 0
scalar SlicingScenario.rsu[0].appl meanJitter_40_223 0
scalar SlicingScenario.rsu[0].appl meanRxPacketSize_40_223 0
scalar SlicingScenario.rsu[0].appl meanTxPacketSize_40_223 1510
scalar SlicingScenario.rsu[0].appl meanRxThroughput_40_223 0
scalar SlicingScenario.rsu[0].appl meanTxThroughput_40_223 12108.290398126
scalar SlicingScenario.rsu[0].appl rxTimeOfService_40_223 0
scalar SlicingScenario.rsu[0].appl txTimeOfService_40_223 427
scalar SlicingScenario.rsu[0].appl txPackets_40_235 424
scalar SlicingScenario.rsu[0].appl rxPackets_40_235 0
scalar SlicingScenario.rsu[0].appl rxNeighborPackets_40_235 0
scalar SlicingScenario.rsu[0].appl meanDelay_40_235 0
scalar SlicingScenario.rsu[0].appl meanJitter_40_235 0
scalar SlicingScenario.rsu[0].appl meanRxPacketSize_40_235 0
scalar SlicingScenario.rsu[0].appl meanTxPacketSize_40_235 1510
scalar SlicingScenario.rsu[0].appl meanRxThroughput_40_235 0
scalar SlicingScenario.rsu[0].appl meanTxThroughput_40_235 12108.557919622
scalar SlicingScenario.rsu[0].appl rxTimeOfService_40_235 0
scalar SlicingScenario.rsu[0].appl txTimeOfService_40_235 423
scalar SlicingScenario.rsu[0].appl txPackets_40_247 420
scalar SlicingScenario.rsu[0].appl rxPackets_40_247 0
scalar SlicingScenario.rsu[0].appl rxNeighborPackets_40_247 0
scalar SlicingScenario.rsu[0].appl meanDelay_40_247 0
scalar SlicingScenario.rsu[0].appl meanJitter_40_247 0
scalar SlicingScenario.rsu[0].appl meanRxPacketSize_40_247 0
scalar SlicingScenario.rsu[0].appl meanTxPacketSize_40_247 1510
scalar SlicingScenario.rsu[0].appl meanRxThroughput_40_247 0
scalar SlicingScenario.rsu[0].appl meanTxThroughput_40_247 12108.830548926
scalar SlicingScenario.rsu[0].appl rxTimeOfService_40_247 0
scalar SlicingScenario.rsu[0].appl txTimeOfService_40_247 419
scalar SlicingScenario.rsu[0].appl txPackets_41_13 498
scalar SlicingScenario.rsu[0].appl rxPackets_41_13 0
scalar SlicingScenario.rsu[0].appl rxNeighborPackets_41_13 0
scalar SlicingScenario.rsu[0].appl meanDelay_41_13 0
scalar SlicingScenario.rsu[0].appl meanJitter_41_13 0
scalar SlicingScenario.rsu[0].appl meanRxPacketSize_41_13 0
scalar SlicingScenario.rsu[0].appl meanTxPacketSize_41_13 1510
scalar SlicingScenario.rsu[0].appl meanRxThroughput_41_13 0
scalar SlicingScenario.rsu[0].appl meanTxThroughput_41_13 12104.30583501
scalar SlicingScenario.rsu[0].appl rxTimeOfService_41_13 0
scalar SlicingScenario.rsu[0].appl txTimeOfService_41_13 497
scalar SlicingScenario.rsu[0].appl txPackets_41_19 496
scalar SlicingScenario.rsu[0].appl rxPackets_41_19 0
scalar SlicingScenario.rsu[0].appl rxNeighborPackets_41_19 0
scalar SlicingScenario.rsu[0].appl meanDelay_41_19 0
scalar SlicingScenario.rsu[0].appl meanJitter_41_19 0
scalar SlicingScenario.rsu[0].appl meanRxPacketSize_41_19 0
scalar SlicingScenario.rsu[0].appl meanTxPacketSize_41_19 1510
scalar SlicingScenario.rsu[0].appl meanRxThroughput_41_19 0
scalar SlicingScenario.rsu[0].appl meanTxThroughput_41_19 12104.404040404
scalar SlicingScenario.rsu[0].appl rxTimeOfService_41_19 0
scalar SlicingScenario.rsu[0].appl txTimeOfService_41_19 495
scalar SlicingScenario.rsu[0].appl txPackets_41_25 494
scalar SlicingScenario.rsu[0].appl rxPackets_41_25 0
scalar SlicingScenario.rsu[0].appl rxNeighborPackets_41_25 0
scalar SlicingScenario.rsu[0].appl meanDelay_41_25 0
scalar SlicingScenario.rsu[0].appl meanJitter_41_25 0
scalar SlicingScenario.rsu[0].appl meanRxPacketSize_41_25 0
scalar SlicingScenario.rsu[0].appl meanTxPacketSize_41_25 1510
scalar SlicingScenario.rsu[0].appl meanRxThroughput_41_25 0
scalar SlicingScenario.rsu[0].appl meanTxThroughput_41_25 12104.503042596
scalar SlicingScenario.rsu[0].appl rxTimeOfService_41_25 0
scalar SlicingScenario.rsu[0].appl txTimeOfService_41_25 493
scalar SlicingScenario.rsu[0].appl txPackets_41_43 488
scalar SlicingScenario.rsu[0].appl rxPackets_41_43 0
scalar SlicingScenario.rsu[0].appl rxNeighborPackets_41_43 0
scalar SlicingScenario.rsu[0].appl meanDelay_41_43 0
scalar SlicingScenario.rsu[0].appl meanJitter_41_43 0
scalar SlicingScenario.rsu[0].appl meanRxPacketSize_41_43 0
scalar SlicingScenario.rsu[0].appl meanTxPacketSize_41_43 1510
scalar SlicingScenario.rsu[0].appl meanRxThroughput_41_43 0
scalar SlicingScenario.rsu[0].appl meanTxThroughput_41_43 12104.804928131
scalar SlicingScenario.rsu[0].appl rxTimeOfService_41_43 0
scalar SlicingScenario.rsu[0].appl txTimeOfService_41_43 487
scalar SlicingScenario.rsu[0].appl txPackets_41_55 484
scalar SlicingScenario.rsu[0].appl rxPackets_41_55 0
scalar SlicingScenario.rsu[0].appl rxNeighborPackets_41_55 0
scalar SlicingScenario.rsu[0].appl meanDelay_41_55 0
scalar SlicingScenario.rsu[0].appl meanJitter_41_55 0
scalar SlicingScenario.rsu[0].appl meanRxPacketSize_41_55 0
scalar SlicingScenario.rsu[0].appl meanTxPacketSize_41_55 1510
scalar SlicingScenario.rsu[0].appl meanRxThroughput_41_55 0
scalar SlicingScenario.rsu[0].appl meanTxThroughput_41_55 12105.010351967
scalar SlicingScenario.rsu[0].appl rxTimeOfService_41_55 0
scalar SlicingScenario.rsu[0].appl txTimeOfService_41_55 483
scalar SlicingScenario.rsu[0].appl txPackets_41_61 482
scalar SlicingScenario.rsu[0].appl rxPackets_41_61 0
scalar SlicingScenario.rsu[0].appl rxNeighborPackets_41_61 0
scalar SlicingScenario.rsu[0].appl meanDelay_41_61 0
scalar SlicingScenario.rsu[0].appl meanJitter_41_61 0
scalar SlicingScenario.rsu[0].appl meanRxPacketSize_41_61 0
scalar SlicingScenario.rsu[0].appl meanTxPacketSize_41_61 1510
scalar SlicingScenario.rsu[0].appl meanRxThroughput_41_61 0
scalar SlicingScenario.rsu[0].appl meanTxThroughput_41_61 12105.114345114
scalar SlicingScenario.rsu[0].appl rxTimeOfService_41_61 0
scalar SlicingScenario.rsu[0].appl txTimeOfService_41_61 481
scalar SlicingScenario.rsu[0].appl txPackets_41_67 480
scalar SlicingScenario.rsu[0].appl rxPackets_41_67 0
scalar SlicingScenario.rsu[0].appl rxNeighborPackets_41_67 0
scalar SlicingScenario.rsu[0].appl meanDelay_41_67 0
scalar SlicingScenario.rsu[0].appl meanJitter_41_67 0
scalar SlicingScenario.rsu[0].appl meanRxPacketSize_41_67 0
scalar SlicingScenario.rsu[0].appl meanTxPacketSize_41_67 1510
scalar SlicingScenario.rsu[0].appl meanRxThroughput_41_67 0
scalar SlicingScenario.rsu[0].appl meanTxThroughput_41_67 12105.219206681
scalar SlicingScenario.rsu[0].appl rxTimeOfService_41_67 0
scalar SlicingScenario.rsu[0].appl txTimeOfService_41_67 479
scalar SlicingScenario.rsu[0].appl txPackets_41_73 478
scalar SlicingScenario.rsu[0].appl rxPackets_41_73 0
scalar SlicingScenario.rsu[0].appl rxNeighborPackets_41_73 0
scalar SlicingScenario.rsu[0].appl meanDelay_41_73 0
scalar SlicingScenario.rsu[0].appl meanJitter_41_73 0
scalar SlicingScenario.rsu[0].appl meanRxPacketSize_41_73 0
scalar SlicingScenario.rsu[0].appl meanTxPacketSize_41_73 1510
scalar SlicingScenario.rsu[0].appl meanRxThroughput_41_73 0
scalar SlicingScenario.rsu[0].appl meanTxThroughput_41_73 12105.324947589
scalar SlicingScenario.rsu[0].appl rxTimeOfService_41_73 0
scalar SlicingScenario.rsu[0].appl txTimeOfService_41_73 477
scalar SlicingScenario.rsu[0].appl txPackets_41_79 476
scalar SlicingScenario.rsu[0].appl rxPackets_41_79 0
scalar SlicingScenario.rsu[0].appl rxNeighborPackets_41_79 0
scalar SlicingScenario.rsu[0].appl meanDelay_41_79 0
scalar SlicingScenario.rsu[0].appl meanJitter_41_79 0
scalar SlicingScenario.rsu[0].appl meanRxPacketSize_41_79 0
scalar SlicingScenario.rsu[0].appl meanTxPacketSize_41_79 1510
scalar SlicingScenario.rsu[0].appl meanRxThroughput_41_79 0
scalar SlicingScenario.rsu[0].appl meanTxThroughput_41_79 12105.431578947
scalar SlicingScenario.rsu[0].appl rxTimeOfService_41_79 0
scalar SlicingScenario.rsu[0].appl txTimeOfService_41_79 475
scalar SlicingScenario.rsu[0].appl txPackets_41_97 470
scalar SlicingScenario.rsu[0].appl rxPackets_41_97 0
scalar SlicingScenario.rsu[0].appl rxNeighborPackets_41_97 0
scalar SlicingScenario.rsu[0].appl meanDelay_41_97 0
scalar SlicingScenario.rsu[0].appl meanJitter_41_97 0
scalar SlicingScenario.rsu[0].appl meanRxPacketSize_41_97 0
scalar SlicingScenario.rsu[0].appl meanTxPacketSize_41_97 1510
scalar SlicingScenario.rsu[0].appl meanRxThroughput_41_97 0
scalar SlicingScenario.rsu[0].appl meanTxThroughput_41_97 12105.756929638
scalar SlicingScenario.rsu[0].appl rxTimeOfService_41_97 0
scalar SlicingScenario.rsu[0].appl txTimeOfService_41_97 469
scalar SlicingScenario.rsu[0].appl txPackets_41_121 462
scalar SlicingScenario.rsu[0].appl rxPackets_41_121 0
scalar SlicingScenario.rsu[0].appl rxNeighborPackets_41_121 0
scalar SlicingScenario.rsu[0].appl meanDelay_41_121 0
scalar SlicingScenario.rsu[0].appl meanJitter_41_121 0
scalar SlicingScenario.rsu[0].appl meanRxPacketSize_41_121 0
scalar SlicingScenario.rsu[0].appl meanTxPacketSize_41_121 1510
scalar SlicingScenario.rsu[0].appl meanRxThroughput_41_121 0
scalar SlicingScenario.rsu[0].appl meanTxThroughput_41_121 12106.203904555
scalar SlicingScenario.rsu[0].appl rxTimeOfService_41_121 0
scalar SlicingScenario.rsu[0].appl txTimeOfService_41_121 461
scalar SlicingScenario.rsu[0].appl txPackets_41_133 458
scalar SlicingScenario.rsu[0].appl rxPackets_41_133 0
scalar SlicingScenario.rsu[0].appl rxNeighborPackets_41_133 0
scalar SlicingScenario.rsu[0].appl meanDelay_41_133 0
scalar SlicingScenario.rsu[0].appl meanJitter_41_133 0
scalar SlicingScenario.rsu[0].appl meanRxPacketSize_41_133 0
scalar SlicingScenario.rsu[0].appl meanTxPacketSize_41_133 1510
scalar SlicingScenario.rsu[0].appl meanRxThroughput_41_133 0
scalar SlicingScenario.rsu[0].appl meanTxThroughput_41_133 12106.433260394
scalar SlicingScenario.rsu[0].appl rxTimeOfService_41_133 0
scalar SlicingScenario.rsu[0].appl txTimeOfService_41_133 457
scalar SlicingScenario.rsu[0].appl txPackets_41_157 450
scalar SlicingScenario.rsu[0].appl rxPackets_41_157 0
scalar SlicingScenario.rsu[0].appl rxNeighborPackets_41_157 0
scalar SlicingScenario.rsu[0].appl meanDelay_41_157 0
scalar SlicingScenario.rsu[0].appl meanJitter_41_157 0
scalar SlicingScenario.rsu[0].appl meanRxPacketSize_41_157 0
scalar SlicingScenario.rsu[0].appl meanTxPacketSize_41_157 1510
scalar SlicingScenario.rsu[0].appl meanRxThroughput_41_157 0
scalar SlicingScenario.rsu[0].appl meanTxThroughput_41_157 12106.904231626
scalar SlicingScenario.rsu[0].appl rxTimeOfService_41_157 0
scalar SlicingScenario.rsu[0].appl txTimeOfService_41_157 449
scalar SlicingScenario.rsu[0].appl txPackets_41_169 446
scalar SlicingScenario.rsu[0].appl rxPackets_41_169 0
scalar SlicingScenario.rsu[0].appl rxNeighborPackets_41_169 0
scalar SlicingScenario.rsu[0].appl meanDelay_41_169 0
scalar SlicingScenario.rsu[0].appl meanJitter_41_169 0
scalar SlicingScenario.rsu[0].appl meanRxPacketSize_41_169 0
scalar SlicingScenario.rsu[0].appl meanTxPacketSize_41_169 1510
scalar SlicingScenario.rsu[0].appl meanRxThroughput_41_169 0
scalar SlicingScenario.rsu[0].appl meanTxThroughput_41_169 12107.146067416
scalar SlicingScenario.rsu[0].appl rxTimeOfService_41_169 0
scalar SlicingScenario.rsu[0].appl txTimeOfService_41_169 445
scalar SlicingScenario.rsu[0].appl txPackets_41_175 442
scalar SlicingScenario.rsu[0].appl rxPackets_41_175 0
scalar SlicingScenario.rsu[0].appl rxNeighborPackets_41_175 0
scalar SlicingScenario.rsu[0].appl meanDelay_41_175 0
scalar SlicingScenario.rsu[0].appl meanJitter_41_175 0
scalar SlicingScenario.rsu[0].appl meanRxPacketSize_41_175 0
scalar SlicingScenario.rsu[0].appl meanTxPacketSize_41_175 1510
scalar SlicingScenario.rsu[0].appl meanRxThroughput_41_175 0
scalar SlicingScenario.rsu[0].appl meanTxThroughput_41_175 12107.392290249
scalar SlicingScenario.rsu[0].appl rxTimeOfService_41_175 0
scalar SlicingScenario.rsu[0].appl txTimeOfService_41_175 441
scalar SlicingScenario.rsu[0].appl txPackets_41_181 440
scalar SlicingScenario.rsu[0].appl rxPackets_41_181 0
scalar SlicingScenario.rsu[0].appl rxNeighborPackets_41_181 0
scalar SlicingScenario.rsu[0].appl meanDelay_41_181 0
scalar SlicingScenario.rsu[0].appl meanJitter_41_181 0
scalar SlicingScenario.rsu[0].appl meanRxPacketSize_41_181 0
scalar SlicingScenario.rsu[0].appl meanTxPacketSize_41_181 1510
scalar SlicingScenario.rsu[0].appl meanRxThroughput_41_181 0
scalar SlicingScenario.rsu[0].appl meanTxThroughput_41_181 12107.517084282
scalar SlicingScenario.rsu[0].appl rxTimeOfService_41_181 0
scalar SlicingScenario.rsu[0].appl txTimeOfService_41_181 439
scalar SlicingScenario.rsu[0].appl txPackets_41_211 432
scalar SlicingScenario.rsu[0].appl rxPackets_41_211 0
scalar SlicingScenario.rsu[0].appl rxNeighborPackets_41_211 0
scalar SlicingScenario.rsu[0].appl meanDelay_41_211 0
scalar SlicingScenario.rsu[0].appl meanJitter_41_211 0
scalar SlicingScenario.rsu[0].appl meanRxPacketSize_41_211 0
scalar SlicingScenario.rsu[0].appl meanTxPacketSize_41_211 1510
scalar SlicingScenario.rsu[0].appl meanRxThroughput_41_211 0
scalar SlicingScenario.rsu[0].appl meanTxThroughput_41_211 12108.027842227
scalar SlicingScenario.rsu[0].appl rxTimeOfService_41_211 0
scalar SlicingScenario.rsu[0].appl txTimeOfService_41_211 431
scalar SlicingScenario.rsu[0].appl txPackets_41_229 426
scalar SlicingScenario.rsu[0].appl rxPackets_41_229 0
scalar SlicingScenario.rsu[0].appl rxNeighborPackets_41_229 0
scalar SlicingScenario.rsu[0].appl meanDelay_41_229 0
scalar SlicingScenario.rsu[0].appl meanJitter_41_229 0
scalar SlicingScenario.rsu[0].appl meanRxPacketSize_41_229 0
scalar SlicingScenario.rsu[0].appl meanTxPacketSize_41_229 1510
scalar SlicingScenario.rsu[0].appl meanRxThroughput_41_229 0
scalar SlicingScenario.rsu[0].appl meanTxThroughput_41_229 12108.423529412
scalar SlicingScenario.rsu[0].appl rxTimeOfService_41_229 0
scalar SlicingScenario.rsu[0].appl txTimeOfService_41_229 425
scalar SlicingScenario.rsu[0].appl txPackets_41_241 422
scalar SlicingScenario.rsu[0].appl rxPackets_41_241 0
scalar SlicingScenario.rsu[0].appl rxNeighborPackets_41_241 0
scalar SlicingScenario.rsu[0].appl meanDelay_41_241 0
scalar SlicingScenario.rsu[0].appl meanJitter_41_241 0
scalar SlicingScenario.rsu[0].appl meanRxPacketSize_41_241 0
scalar SlicingScenario.rsu[0].appl meanTxPacketSize_41_241 1510
scalar SlicingScenario.rsu[0].appl meanRxThroughput_41_241 0
scalar SlicingScenario.rsu[0].appl meanTxThroughput_41_241 12108.693586698
scalar SlicingScenario.rsu[0].appl rxTimeOfService_41_241 0
scalar SlicingScenario.rsu[0].appl txTimeOfService_41_241 421
scalar SlicingScenario.rsu[0].nic.phy80211p busyTime 0
scalar SlicingScenario.rsu[0].nic.phy80211p ncollisions 0
scalar SlicingScenario.rsu[0].nic.phy80211p UnderSensitivityPackets 0
scalar SlicingScenario.rsu[0].nic.mac1609_4 ReceivedUnicastPackets_CCH 0
scalar SlicingScenario.rsu[0].nic.mac1609_4 ReceivedBroadcasts_CCH 0
scalar SlicingScenario.rsu[0].nic.mac1609_4 SentPackets_CCH 0
scalar SlicingScenario.rsu[0].nic.mac1609_4 SentAcknowledgements_CCH 0
scalar SlicingScenario.rsu[0].nic.mac1609_4 SNIRLostPackets_CCH 0
scalar SlicingScenario.rsu[0].nic.mac1609_4 RXTXLostPackets_CCH 0
scalar SlicingScenario.rsu[0].nic.mac1609_4 TotalLostPackets_CCH 0
scalar SlicingScenario.rsu[0].nic.mac1609_4 DroppedPacketsInMac_CCH 0
scalar SlicingScenario.rsu[0].nic.mac1609_4 TooLittleTime_CCH 0
scalar SlicingScenario.rsu[0].nic.mac1609_4 TimesIntoBackoff_CCH 0
scalar SlicingScenario.rsu[0].nic.mac1609_4 SlotsBackoff_CCH 0
scalar SlicingScenario.rsu[0].nic.mac1609_4 NumInternalContention_CCH 0
scalar SlicingScenario.rsu[0].nic.mac1609_4 RemainingPacketsInEDCA_CCH 0
scalar SlicingScenario.rsu[0].nic.mac1609_4 totalBusyTime_CCH 0
scalar SlicingScenario.rsu[0].nic.mac1609_4 ReceivedUnicastPackets_SCH 0
scalar SlicingScenario.rsu[0].nic.mac1609_4 ReceivedBroadcasts_SCH 0
scalar SlicingScenario.rsu[0].nic.mac1609_4 SentPackets_SCH 18355
scalar SlicingScenario.rsu[0].nic.mac1609_4 SentAcknowledgements_SCH 0
scalar SlicingScenario.rsu[0].nic.mac1609_4 SNIRLostPackets_SCH 0
scalar SlicingScenario.rsu[0].nic.mac1609_4 RXTXLostPackets_SCH 0
scalar SlicingScenario.rsu[0].nic.mac1609_4 TotalLostPackets_SCH 0
scalar SlicingScenario.rsu[0].nic.mac1609_4 DroppedPacketsInMac_SCH 0
scalar SlicingScenario.rsu[0].nic.mac1609_4 TooLittleTime_SCH 16883
scalar SlicingScenario.rsu[0].nic.mac1609_4 TimesIntoBackoff_SCH 20700
scalar SlicingScenario.rsu[0].nic.mac1609_4 SlotsBackoff_SCH 64233
scalar SlicingScenario.rsu[0].nic.mac1609_4 NumInternalContention_SCH 0
scalar SlicingScenario.rsu[0].nic.mac1609_4 RemainingPacketsInEDCA_SCH 1
scalar SlicingScenario.rsu[0].nic.mac1609_4 totalBusyTime_SCH 37.903075

