version 2
run General-7-20190316-16:18:10-4962
attr configname General
attr datetime 20190316-16:18:10
attr experiment General
attr inifile omnetpp.ini
attr iterationvars "$vehicles=0.1, $msgSizeA=1500B, $serviceMsgInterval=0.04s, $msgSizeB=10000B"
attr iterationvarsf vehicles=0.1,msgSizeA=1500B,serviceMsgInterval=0.04s,msgSizeB=10000B-
attr measurement "$vehicles=0.1, $msgSizeA=1500B, $serviceMsgInterval=0.04s, $msgSizeB=10000B"
attr network com.liborio.slicing.SlicingScenario
attr processid 4962
attr repetition 7
attr replication #7
attr resultdir results
attr runnumber 7
attr seedset 7
itervar msgSizeA 1500B
itervar msgSizeB 10000B
itervar serviceMsgInterval 0.04s
itervar vehicles 0.1
param **.debug false
param **.coreDebug false
param *.playgroundSizeX 1200m
param *.playgroundSizeY 1200m
param *.playgroundSizeZ 50m
param *.annotations.draw true
param *.manager.updateInterval 1s
param *.manager.host "\"localhost\""
param *.manager.port 9999
param *.manager.autoShutdown true
param *.manager.launchConfig "xmldoc(\"highway-\"+string(0.1)+\".launchd.xml\")"
param *.connectionManager.sendDirect true
param *.connectionManager.maxInterfDist 2600m
param *.connectionManager.drawMaxIntfDist false
param *.rsu[*].applType "\"RSUApp\""
param *.rsu[*].appl.headerLength "80 bit"
param *.rsu[*].appl.sendBeacons false
param *.rsu[*].appl.dataOnSch true
param *.rsu[*].appl.beaconInterval 1s
param *.rsu[*].appl.beaconUserPriority 7
param *.rsu[*].appl.dataUserPriority 5
param *.rsu[*].appl.entMsgADataLengthBytes 1500B
param *.rsu[*].appl.entMsgAUserPriority 4
param *.rsu[*].appl.entMsgAInterval 0.04s
param *.rsu[*].appl.entMsgBDataLengthBytes 10000B
param *.rsu[*].appl.entMsgBUserPriority 4
param *.rsu[*].appl.entMsgBInterval 0.04s
param *.rsu[*].nic.mac1609_4.useServiceChannel true
param *.rsu[*].nic.mac1609_4.txPower 20mW
param *.rsu[*].nic.mac1609_4.bitrate 6Mbps
param *.rsu[*].nic.phy80211p.sensitivity -90.00dBm
param *.rsu[0].mobility.x 515.0
param *.rsu[0].mobility.y 25.0
param *.rsu[0].mobility.z 3
param *.node[*].applType "\"VehApp\""
param *.node[*].appl.headerLength "80 bit"
param *.node[*].appl.sendBeacons false
param *.node[*].appl.dataOnSch true
param *.node[*].appl.beaconInterval 1s
param *.node[*].appl.wsaInterval 1s
param *.node[*].appl.entMsgADataLengthBits 1500B
param *.node[*].appl.entMsgAUserPriority 4
param *.node[*].appl.entMsgAInterval 0.04s
param *.node[*].appl.entMsgBDataLengthBits 10000B
param *.node[*].appl.entMsgBUserPriority 4
param *.node[*].appl.entMsgBInterval 0.04s
param *.node[*].nic.mac1609_4.useServiceChannel true
param *.node[*].nic.mac1609_4.txPower 20mW
param *.node[*].nic.mac1609_4.bitrate 6Mbps
param *.node[*].nic.phy80211p.sensitivity -90.00dBm
param *.node[*].veinsmobilityType.debug true
param *.node[*].veinsmobility.x 0
param *.node[*].veinsmobility.y 0
param *.node[*].veinsmobility.z 1.895
param *.**.nic.phy80211p.useThermalNoise true
param *.**.nic.phy80211p.thermalNoise -110dBm
param *.**.nic.phy80211p.decider "xmldoc(\"config.xml\")"
param *.**.nic.phy80211p.analogueModels "xmldoc(\"config.xml\")"
param *.**.nic.phy80211p.usePropagationDelay true
param *.**.nic.phy80211p.antenna "xmldoc(\"antenna.xml\", \"/root/Antenna[@id='monopole']\")"
param *.**.nic.phy80211p.collectCollisionStatistics true
param *.**.nic.phy80211p.allowTxDuringRx false

scalar SlicingScenario.node[0].appl txPackets_CCH_13 0
scalar SlicingScenario.node[0].appl rxPackets_CCH_13 0
scalar SlicingScenario.node[0].appl rxNeighborPackets_CCH_13 0
scalar SlicingScenario.node[0].appl meanDelay_CCH_13 0
scalar SlicingScenario.node[0].appl meanJitter_CCH_13 0
scalar SlicingScenario.node[0].appl meanRxPacketSize_CCH_13 0
scalar SlicingScenario.node[0].appl meanTxPacketSize_CCH_13 0
scalar SlicingScenario.node[0].appl meanRxThroughput_CCH_13 0
scalar SlicingScenario.node[0].appl meanTxThroughput_CCH_13 0
scalar SlicingScenario.node[0].appl rxTimeOfService_CCH_13 0
scalar SlicingScenario.node[0].appl txTimeOfService_CCH_13 0
scalar SlicingScenario.node[0].appl txPackets_SCH_40_13 0
scalar SlicingScenario.node[0].appl rxPackets_SCH_40_13 328
scalar SlicingScenario.node[0].appl rxNeighborPackets_SCH_40_13 1319
scalar SlicingScenario.node[0].appl meanDelay_SCH_40_13 26.523705992835
scalar SlicingScenario.node[0].appl meanJitter_SCH_40_13 0.219064542503
scalar SlicingScenario.node[0].appl meanRxPacketSize_SCH_40_13 1510
scalar SlicingScenario.node[0].appl meanTxPacketSize_SCH_40_13 0
scalar SlicingScenario.node[0].appl meanRxThroughput_SCH_40_13 46294.394292595
scalar SlicingScenario.node[0].appl meanTxThroughput_SCH_40_13 0
scalar SlicingScenario.node[0].appl rxTimeOfService_SCH_40_13 85.587900231666
scalar SlicingScenario.node[0].appl txTimeOfService_SCH_40_13 0
scalar SlicingScenario.node[0].nic.phy80211p busyTime 0.36297704347831
scalar SlicingScenario.node[0].nic.phy80211p ncollisions 0
scalar SlicingScenario.node[0].nic.phy80211p UnderSensitivityPackets 1503
scalar SlicingScenario.node[0].nic.mac1609_4 ReceivedUnicastPackets_CCH 0
scalar SlicingScenario.node[0].nic.mac1609_4 ReceivedBroadcasts_CCH 0
scalar SlicingScenario.node[0].nic.mac1609_4 SentPackets_CCH 0
scalar SlicingScenario.node[0].nic.mac1609_4 SentAcknowledgements_CCH 0
scalar SlicingScenario.node[0].nic.mac1609_4 SNIRLostPackets_CCH 0
scalar SlicingScenario.node[0].nic.mac1609_4 RXTXLostPackets_CCH 0
scalar SlicingScenario.node[0].nic.mac1609_4 TotalLostPackets_CCH 0
scalar SlicingScenario.node[0].nic.mac1609_4 DroppedPacketsInMac_CCH 0
scalar SlicingScenario.node[0].nic.mac1609_4 TooLittleTime_CCH 0
scalar SlicingScenario.node[0].nic.mac1609_4 TimesIntoBackoff_CCH 0
scalar SlicingScenario.node[0].nic.mac1609_4 SlotsBackoff_CCH 0
scalar SlicingScenario.node[0].nic.mac1609_4 NumInternalContention_CCH 0
scalar SlicingScenario.node[0].nic.mac1609_4 RemainingPacketsInEDCA_CCH 0
scalar SlicingScenario.node[0].nic.mac1609_4 totalBusyTime_CCH 0
scalar SlicingScenario.node[0].nic.mac1609_4 ReceivedUnicastPackets_SCH 0
scalar SlicingScenario.node[0].nic.mac1609_4 ReceivedBroadcasts_SCH 16888
scalar SlicingScenario.node[0].nic.mac1609_4 SentPackets_SCH 0
scalar SlicingScenario.node[0].nic.mac1609_4 SentAcknowledgements_SCH 0
scalar SlicingScenario.node[0].nic.mac1609_4 SNIRLostPackets_SCH 0
scalar SlicingScenario.node[0].nic.mac1609_4 RXTXLostPackets_SCH 0
scalar SlicingScenario.node[0].nic.mac1609_4 TotalLostPackets_SCH 0
scalar SlicingScenario.node[0].nic.mac1609_4 DroppedPacketsInMac_SCH 0
scalar SlicingScenario.node[0].nic.mac1609_4 TooLittleTime_SCH 0
scalar SlicingScenario.node[0].nic.mac1609_4 TimesIntoBackoff_SCH 0
scalar SlicingScenario.node[0].nic.mac1609_4 SlotsBackoff_SCH 0
scalar SlicingScenario.node[0].nic.mac1609_4 NumInternalContention_SCH 0
scalar SlicingScenario.node[0].nic.mac1609_4 RemainingPacketsInEDCA_SCH 0
scalar SlicingScenario.node[0].nic.mac1609_4 totalBusyTime_SCH 33.393888
scalar SlicingScenario.node[0].veinsmobility startTime 1
scalar SlicingScenario.node[0].veinsmobility totalTime 91
scalar SlicingScenario.node[0].veinsmobility stopTime 93
scalar SlicingScenario.node[0].veinsmobility minSpeed 10.613823684994
scalar SlicingScenario.node[0].veinsmobility maxSpeed 11.108443561723
scalar SlicingScenario.node[0].veinsmobility totalDistance 977.95922198399
scalar SlicingScenario.node[0].veinsmobility totalCO2Emission 159.01433218736
scalar SlicingScenario.node[3].appl txPackets_CCH_31 0
scalar SlicingScenario.node[3].appl rxPackets_CCH_31 0
scalar SlicingScenario.node[3].appl rxNeighborPackets_CCH_31 0
scalar SlicingScenario.node[3].appl meanDelay_CCH_31 0
scalar SlicingScenario.node[3].appl meanJitter_CCH_31 0
scalar SlicingScenario.node[3].appl meanRxPacketSize_CCH_31 0
scalar SlicingScenario.node[3].appl meanTxPacketSize_CCH_31 0
scalar SlicingScenario.node[3].appl meanRxThroughput_CCH_31 0
scalar SlicingScenario.node[3].appl meanTxThroughput_CCH_31 0
scalar SlicingScenario.node[3].appl rxTimeOfService_CCH_31 0
scalar SlicingScenario.node[3].appl txTimeOfService_CCH_31 0
scalar SlicingScenario.node[3].appl txPackets_SCH_41_31 0
scalar SlicingScenario.node[3].appl rxPackets_SCH_41_31 2289
scalar SlicingScenario.node[3].appl rxNeighborPackets_SCH_41_31 13148
scalar SlicingScenario.node[3].appl meanDelay_SCH_41_31 27.248053094242
scalar SlicingScenario.node[3].appl meanJitter_SCH_41_31 0.031466488844
scalar SlicingScenario.node[3].appl meanRxPacketSize_SCH_41_31 1438
scalar SlicingScenario.node[3].appl meanTxPacketSize_SCH_41_31 0
scalar SlicingScenario.node[3].appl meanRxThroughput_SCH_41_31 307739.37616961
scalar SlicingScenario.node[3].appl meanTxThroughput_SCH_41_31 0
scalar SlicingScenario.node[3].appl rxTimeOfService_SCH_41_31 85.602045236749
scalar SlicingScenario.node[3].appl txTimeOfService_SCH_41_31 0
scalar SlicingScenario.node[3].nic.phy80211p busyTime 0.36766330434787
scalar SlicingScenario.node[3].nic.phy80211p ncollisions 0
scalar SlicingScenario.node[3].nic.phy80211p UnderSensitivityPackets 1285
scalar SlicingScenario.node[3].nic.mac1609_4 ReceivedUnicastPackets_CCH 0
scalar SlicingScenario.node[3].nic.mac1609_4 ReceivedBroadcasts_CCH 0
scalar SlicingScenario.node[3].nic.mac1609_4 SentPackets_CCH 0
scalar SlicingScenario.node[3].nic.mac1609_4 SentAcknowledgements_CCH 0
scalar SlicingScenario.node[3].nic.mac1609_4 SNIRLostPackets_CCH 0
scalar SlicingScenario.node[3].nic.mac1609_4 RXTXLostPackets_CCH 0
scalar SlicingScenario.node[3].nic.mac1609_4 TotalLostPackets_CCH 0
scalar SlicingScenario.node[3].nic.mac1609_4 DroppedPacketsInMac_CCH 0
scalar SlicingScenario.node[3].nic.mac1609_4 TooLittleTime_CCH 0
scalar SlicingScenario.node[3].nic.mac1609_4 TimesIntoBackoff_CCH 0
scalar SlicingScenario.node[3].nic.mac1609_4 SlotsBackoff_CCH 0
scalar SlicingScenario.node[3].nic.mac1609_4 NumInternalContention_CCH 0
scalar SlicingScenario.node[3].nic.mac1609_4 RemainingPacketsInEDCA_CCH 0
scalar SlicingScenario.node[3].nic.mac1609_4 totalBusyTime_CCH 0
scalar SlicingScenario.node[3].nic.mac1609_4 ReceivedUnicastPackets_SCH 0
scalar SlicingScenario.node[3].nic.mac1609_4 ReceivedBroadcasts_SCH 17106
scalar SlicingScenario.node[3].nic.mac1609_4 SentPackets_SCH 0
scalar SlicingScenario.node[3].nic.mac1609_4 SentAcknowledgements_SCH 0
scalar SlicingScenario.node[3].nic.mac1609_4 SNIRLostPackets_SCH 0
scalar SlicingScenario.node[3].nic.mac1609_4 RXTXLostPackets_SCH 0
scalar SlicingScenario.node[3].nic.mac1609_4 TotalLostPackets_SCH 0
scalar SlicingScenario.node[3].nic.mac1609_4 DroppedPacketsInMac_SCH 0
scalar SlicingScenario.node[3].nic.mac1609_4 TooLittleTime_SCH 0
scalar SlicingScenario.node[3].nic.mac1609_4 TimesIntoBackoff_SCH 0
scalar SlicingScenario.node[3].nic.mac1609_4 SlotsBackoff_SCH 0
scalar SlicingScenario.node[3].nic.mac1609_4 NumInternalContention_SCH 0
scalar SlicingScenario.node[3].nic.mac1609_4 RemainingPacketsInEDCA_SCH 0
scalar SlicingScenario.node[3].nic.mac1609_4 totalBusyTime_SCH 33.825024
scalar SlicingScenario.node[3].veinsmobility startTime 1
scalar SlicingScenario.node[3].veinsmobility totalTime 91
scalar SlicingScenario.node[3].veinsmobility stopTime 93
scalar SlicingScenario.node[3].veinsmobility minSpeed 10.615451039178
scalar SlicingScenario.node[3].veinsmobility maxSpeed 11.101062720655
scalar SlicingScenario.node[3].veinsmobility totalDistance 979.25379059362
scalar SlicingScenario.node[3].veinsmobility totalCO2Emission 158.0358211138
scalar SlicingScenario.node[2].appl txPackets_CCH_25 0
scalar SlicingScenario.node[2].appl rxPackets_CCH_25 0
scalar SlicingScenario.node[2].appl rxNeighborPackets_CCH_25 0
scalar SlicingScenario.node[2].appl meanDelay_CCH_25 0
scalar SlicingScenario.node[2].appl meanJitter_CCH_25 0
scalar SlicingScenario.node[2].appl meanRxPacketSize_CCH_25 0
scalar SlicingScenario.node[2].appl meanTxPacketSize_CCH_25 0
scalar SlicingScenario.node[2].appl meanRxThroughput_CCH_25 0
scalar SlicingScenario.node[2].appl meanTxThroughput_CCH_25 0
scalar SlicingScenario.node[2].appl rxTimeOfService_CCH_25 0
scalar SlicingScenario.node[2].appl txTimeOfService_CCH_25 0
scalar SlicingScenario.node[2].appl txPackets_SCH_41_25 0
scalar SlicingScenario.node[2].appl rxPackets_SCH_41_25 2303
scalar SlicingScenario.node[2].appl rxNeighborPackets_SCH_41_25 13134
scalar SlicingScenario.node[2].appl meanDelay_SCH_41_25 27.017044289559
scalar SlicingScenario.node[2].appl meanJitter_SCH_41_25 0.031214826753
scalar SlicingScenario.node[2].appl meanRxPacketSize_SCH_41_25 1438
scalar SlicingScenario.node[2].appl meanTxPacketSize_SCH_41_25 0
scalar SlicingScenario.node[2].appl meanRxThroughput_SCH_41_25 309527.86468828
scalar SlicingScenario.node[2].appl meanTxThroughput_SCH_41_25 0
scalar SlicingScenario.node[2].appl rxTimeOfService_SCH_41_25 85.627961239264
scalar SlicingScenario.node[2].appl txTimeOfService_SCH_41_25 0
scalar SlicingScenario.node[2].nic.phy80211p busyTime 0.36766330434787
scalar SlicingScenario.node[2].nic.phy80211p ncollisions 0
scalar SlicingScenario.node[2].nic.phy80211p UnderSensitivityPackets 1285
scalar SlicingScenario.node[2].nic.mac1609_4 ReceivedUnicastPackets_CCH 0
scalar SlicingScenario.node[2].nic.mac1609_4 ReceivedBroadcasts_CCH 0
scalar SlicingScenario.node[2].nic.mac1609_4 SentPackets_CCH 0
scalar SlicingScenario.node[2].nic.mac1609_4 SentAcknowledgements_CCH 0
scalar SlicingScenario.node[2].nic.mac1609_4 SNIRLostPackets_CCH 0
scalar SlicingScenario.node[2].nic.mac1609_4 RXTXLostPackets_CCH 0
scalar SlicingScenario.node[2].nic.mac1609_4 TotalLostPackets_CCH 0
scalar SlicingScenario.node[2].nic.mac1609_4 DroppedPacketsInMac_CCH 0
scalar SlicingScenario.node[2].nic.mac1609_4 TooLittleTime_CCH 0
scalar SlicingScenario.node[2].nic.mac1609_4 TimesIntoBackoff_CCH 0
scalar SlicingScenario.node[2].nic.mac1609_4 SlotsBackoff_CCH 0
scalar SlicingScenario.node[2].nic.mac1609_4 NumInternalContention_CCH 0
scalar SlicingScenario.node[2].nic.mac1609_4 RemainingPacketsInEDCA_CCH 0
scalar SlicingScenario.node[2].nic.mac1609_4 totalBusyTime_CCH 0
scalar SlicingScenario.node[2].nic.mac1609_4 ReceivedUnicastPackets_SCH 0
scalar SlicingScenario.node[2].nic.mac1609_4 ReceivedBroadcasts_SCH 17106
scalar SlicingScenario.node[2].nic.mac1609_4 SentPackets_SCH 0
scalar SlicingScenario.node[2].nic.mac1609_4 SentAcknowledgements_SCH 0
scalar SlicingScenario.node[2].nic.mac1609_4 SNIRLostPackets_SCH 0
scalar SlicingScenario.node[2].nic.mac1609_4 RXTXLostPackets_SCH 0
scalar SlicingScenario.node[2].nic.mac1609_4 TotalLostPackets_SCH 0
scalar SlicingScenario.node[2].nic.mac1609_4 DroppedPacketsInMac_SCH 0
scalar SlicingScenario.node[2].nic.mac1609_4 TooLittleTime_SCH 0
scalar SlicingScenario.node[2].nic.mac1609_4 TimesIntoBackoff_SCH 0
scalar SlicingScenario.node[2].nic.mac1609_4 SlotsBackoff_SCH 0
scalar SlicingScenario.node[2].nic.mac1609_4 NumInternalContention_SCH 0
scalar SlicingScenario.node[2].nic.mac1609_4 RemainingPacketsInEDCA_SCH 0
scalar SlicingScenario.node[2].nic.mac1609_4 totalBusyTime_SCH 33.825024
scalar SlicingScenario.node[2].veinsmobility startTime 1
scalar SlicingScenario.node[2].veinsmobility totalTime 91
scalar SlicingScenario.node[2].veinsmobility stopTime 93
scalar SlicingScenario.node[2].veinsmobility minSpeed 10.617241880638
scalar SlicingScenario.node[2].veinsmobility maxSpeed 11.106874336619
scalar SlicingScenario.node[2].veinsmobility totalDistance 979.94375548932
scalar SlicingScenario.node[2].veinsmobility totalCO2Emission 158.43641060448
scalar SlicingScenario.node[1].appl txPackets_CCH_19 0
scalar SlicingScenario.node[1].appl rxPackets_CCH_19 0
scalar SlicingScenario.node[1].appl rxNeighborPackets_CCH_19 0
scalar SlicingScenario.node[1].appl meanDelay_CCH_19 0
scalar SlicingScenario.node[1].appl meanJitter_CCH_19 0
scalar SlicingScenario.node[1].appl meanRxPacketSize_CCH_19 0
scalar SlicingScenario.node[1].appl meanTxPacketSize_CCH_19 0
scalar SlicingScenario.node[1].appl meanRxThroughput_CCH_19 0
scalar SlicingScenario.node[1].appl meanTxThroughput_CCH_19 0
scalar SlicingScenario.node[1].appl rxTimeOfService_CCH_19 0
scalar SlicingScenario.node[1].appl txTimeOfService_CCH_19 0
scalar SlicingScenario.node[1].appl txPackets_SCH_41_19 0
scalar SlicingScenario.node[1].appl rxPackets_SCH_41_19 2280
scalar SlicingScenario.node[1].appl rxNeighborPackets_SCH_41_19 13157
scalar SlicingScenario.node[1].appl meanDelay_SCH_41_19 27.186777450849
scalar SlicingScenario.node[1].appl meanJitter_SCH_41_19 0.03148601987
scalar SlicingScenario.node[1].appl meanRxPacketSize_SCH_41_19 1438
scalar SlicingScenario.node[1].appl meanTxPacketSize_SCH_41_19 0
scalar SlicingScenario.node[1].appl meanRxThroughput_SCH_41_19 307228.21912142
scalar SlicingScenario.node[1].appl meanTxThroughput_SCH_41_19 0
scalar SlicingScenario.node[1].appl rxTimeOfService_SCH_41_19 85.403613232646
scalar SlicingScenario.node[1].appl txTimeOfService_SCH_41_19 0
scalar SlicingScenario.node[1].nic.phy80211p busyTime 0.36766330434787
scalar SlicingScenario.node[1].nic.phy80211p ncollisions 0
scalar SlicingScenario.node[1].nic.phy80211p UnderSensitivityPackets 1285
scalar SlicingScenario.node[1].nic.mac1609_4 ReceivedUnicastPackets_CCH 0
scalar SlicingScenario.node[1].nic.mac1609_4 ReceivedBroadcasts_CCH 0
scalar SlicingScenario.node[1].nic.mac1609_4 SentPackets_CCH 0
scalar SlicingScenario.node[1].nic.mac1609_4 SentAcknowledgements_CCH 0
scalar SlicingScenario.node[1].nic.mac1609_4 SNIRLostPackets_CCH 0
scalar SlicingScenario.node[1].nic.mac1609_4 RXTXLostPackets_CCH 0
scalar SlicingScenario.node[1].nic.mac1609_4 TotalLostPackets_CCH 0
scalar SlicingScenario.node[1].nic.mac1609_4 DroppedPacketsInMac_CCH 0
scalar SlicingScenario.node[1].nic.mac1609_4 TooLittleTime_CCH 0
scalar SlicingScenario.node[1].nic.mac1609_4 TimesIntoBackoff_CCH 0
scalar SlicingScenario.node[1].nic.mac1609_4 SlotsBackoff_CCH 0
scalar SlicingScenario.node[1].nic.mac1609_4 NumInternalContention_CCH 0
scalar SlicingScenario.node[1].nic.mac1609_4 RemainingPacketsInEDCA_CCH 0
scalar SlicingScenario.node[1].nic.mac1609_4 totalBusyTime_CCH 0
scalar SlicingScenario.node[1].nic.mac1609_4 ReceivedUnicastPackets_SCH 0
scalar SlicingScenario.node[1].nic.mac1609_4 ReceivedBroadcasts_SCH 17106
scalar SlicingScenario.node[1].nic.mac1609_4 SentPackets_SCH 0
scalar SlicingScenario.node[1].nic.mac1609_4 SentAcknowledgements_SCH 0
scalar SlicingScenario.node[1].nic.mac1609_4 SNIRLostPackets_SCH 0
scalar SlicingScenario.node[1].nic.mac1609_4 RXTXLostPackets_SCH 0
scalar SlicingScenario.node[1].nic.mac1609_4 TotalLostPackets_SCH 0
scalar SlicingScenario.node[1].nic.mac1609_4 DroppedPacketsInMac_SCH 0
scalar SlicingScenario.node[1].nic.mac1609_4 TooLittleTime_SCH 0
scalar SlicingScenario.node[1].nic.mac1609_4 TimesIntoBackoff_SCH 0
scalar SlicingScenario.node[1].nic.mac1609_4 SlotsBackoff_SCH 0
scalar SlicingScenario.node[1].nic.mac1609_4 NumInternalContention_SCH 0
scalar SlicingScenario.node[1].nic.mac1609_4 RemainingPacketsInEDCA_SCH 0
scalar SlicingScenario.node[1].nic.mac1609_4 totalBusyTime_SCH 33.825024
scalar SlicingScenario.node[1].veinsmobility startTime 1
scalar SlicingScenario.node[1].veinsmobility totalTime 91
scalar SlicingScenario.node[1].veinsmobility stopTime 93
scalar SlicingScenario.node[1].veinsmobility minSpeed 10.612715522656
scalar SlicingScenario.node[1].veinsmobility maxSpeed 11.108157398892
scalar SlicingScenario.node[1].veinsmobility totalDistance 977.76441431509
scalar SlicingScenario.node[1].veinsmobility totalCO2Emission 157.77772588561
scalar SlicingScenario.node[6].appl txPackets_CCH_49 0
scalar SlicingScenario.node[6].appl rxPackets_CCH_49 0
scalar SlicingScenario.node[6].appl rxNeighborPackets_CCH_49 0
scalar SlicingScenario.node[6].appl meanDelay_CCH_49 0
scalar SlicingScenario.node[6].appl meanJitter_CCH_49 0
scalar SlicingScenario.node[6].appl meanRxPacketSize_CCH_49 0
scalar SlicingScenario.node[6].appl meanTxPacketSize_CCH_49 0
scalar SlicingScenario.node[6].appl meanRxThroughput_CCH_49 0
scalar SlicingScenario.node[6].appl meanTxThroughput_CCH_49 0
scalar SlicingScenario.node[6].appl rxTimeOfService_CCH_49 0
scalar SlicingScenario.node[6].appl txTimeOfService_CCH_49 0
scalar SlicingScenario.node[6].appl txPackets_SCH_40_49 0
scalar SlicingScenario.node[6].appl rxPackets_SCH_40_49 279
scalar SlicingScenario.node[6].appl rxNeighborPackets_SCH_40_49 1445
scalar SlicingScenario.node[6].appl meanDelay_SCH_40_49 32.728605035873
scalar SlicingScenario.node[6].appl meanJitter_SCH_40_49 0.263874777548
scalar SlicingScenario.node[6].appl meanRxPacketSize_SCH_40_49 1510
scalar SlicingScenario.node[6].appl meanTxPacketSize_SCH_40_49 0
scalar SlicingScenario.node[6].appl meanRxThroughput_SCH_40_49 41292.334006169
scalar SlicingScenario.node[6].appl meanTxThroughput_SCH_40_49 0
scalar SlicingScenario.node[6].appl rxTimeOfService_SCH_40_49 81.62096139919
scalar SlicingScenario.node[6].appl txTimeOfService_SCH_40_49 0
scalar SlicingScenario.node[6].nic.phy80211p busyTime 0.37258890322584
scalar SlicingScenario.node[6].nic.phy80211p ncollisions 0
scalar SlicingScenario.node[6].nic.phy80211p UnderSensitivityPackets 1295
scalar SlicingScenario.node[6].nic.mac1609_4 ReceivedUnicastPackets_CCH 0
scalar SlicingScenario.node[6].nic.mac1609_4 ReceivedBroadcasts_CCH 0
scalar SlicingScenario.node[6].nic.mac1609_4 SentPackets_CCH 0
scalar SlicingScenario.node[6].nic.mac1609_4 SentAcknowledgements_CCH 0
scalar SlicingScenario.node[6].nic.mac1609_4 SNIRLostPackets_CCH 0
scalar SlicingScenario.node[6].nic.mac1609_4 RXTXLostPackets_CCH 0
scalar SlicingScenario.node[6].nic.mac1609_4 TotalLostPackets_CCH 0
scalar SlicingScenario.node[6].nic.mac1609_4 DroppedPacketsInMac_CCH 0
scalar SlicingScenario.node[6].nic.mac1609_4 TooLittleTime_CCH 0
scalar SlicingScenario.node[6].nic.mac1609_4 TimesIntoBackoff_CCH 0
scalar SlicingScenario.node[6].nic.mac1609_4 SlotsBackoff_CCH 0
scalar SlicingScenario.node[6].nic.mac1609_4 NumInternalContention_CCH 0
scalar SlicingScenario.node[6].nic.mac1609_4 RemainingPacketsInEDCA_CCH 0
scalar SlicingScenario.node[6].nic.mac1609_4 totalBusyTime_CCH 0
scalar SlicingScenario.node[6].nic.mac1609_4 ReceivedUnicastPackets_SCH 0
scalar SlicingScenario.node[6].nic.mac1609_4 ReceivedBroadcasts_SCH 17523
scalar SlicingScenario.node[6].nic.mac1609_4 SentPackets_SCH 0
scalar SlicingScenario.node[6].nic.mac1609_4 SentAcknowledgements_SCH 0
scalar SlicingScenario.node[6].nic.mac1609_4 SNIRLostPackets_SCH 0
scalar SlicingScenario.node[6].nic.mac1609_4 RXTXLostPackets_SCH 0
scalar SlicingScenario.node[6].nic.mac1609_4 TotalLostPackets_SCH 0
scalar SlicingScenario.node[6].nic.mac1609_4 DroppedPacketsInMac_SCH 0
scalar SlicingScenario.node[6].nic.mac1609_4 TooLittleTime_SCH 0
scalar SlicingScenario.node[6].nic.mac1609_4 TimesIntoBackoff_SCH 0
scalar SlicingScenario.node[6].nic.mac1609_4 SlotsBackoff_SCH 0
scalar SlicingScenario.node[6].nic.mac1609_4 NumInternalContention_SCH 0
scalar SlicingScenario.node[6].nic.mac1609_4 RemainingPacketsInEDCA_SCH 0
scalar SlicingScenario.node[6].nic.mac1609_4 totalBusyTime_SCH 34.650768
scalar SlicingScenario.node[6].veinsmobility startTime 2
scalar SlicingScenario.node[6].veinsmobility totalTime 92
scalar SlicingScenario.node[6].veinsmobility stopTime 95
scalar SlicingScenario.node[6].veinsmobility minSpeed 7.9136123060463
scalar SlicingScenario.node[6].veinsmobility maxSpeed 11.098127396675
scalar SlicingScenario.node[6].veinsmobility totalDistance 981.6192853533
scalar SlicingScenario.node[6].veinsmobility totalCO2Emission 166.88955393638
scalar SlicingScenario.node[4].appl txPackets_CCH_37 0
scalar SlicingScenario.node[4].appl rxPackets_CCH_37 0
scalar SlicingScenario.node[4].appl rxNeighborPackets_CCH_37 0
scalar SlicingScenario.node[4].appl meanDelay_CCH_37 0
scalar SlicingScenario.node[4].appl meanJitter_CCH_37 0
scalar SlicingScenario.node[4].appl meanRxPacketSize_CCH_37 0
scalar SlicingScenario.node[4].appl meanTxPacketSize_CCH_37 0
scalar SlicingScenario.node[4].appl meanRxThroughput_CCH_37 0
scalar SlicingScenario.node[4].appl meanTxThroughput_CCH_37 0
scalar SlicingScenario.node[4].appl rxTimeOfService_CCH_37 0
scalar SlicingScenario.node[4].appl txTimeOfService_CCH_37 0
scalar SlicingScenario.node[4].appl txPackets_SCH_41_37 0
scalar SlicingScenario.node[4].appl rxPackets_SCH_41_37 1998
scalar SlicingScenario.node[4].appl rxNeighborPackets_SCH_41_37 13801
scalar SlicingScenario.node[4].appl meanDelay_SCH_41_37 31.920761724139
scalar SlicingScenario.node[4].appl meanJitter_SCH_41_37 0.036726700099
scalar SlicingScenario.node[4].appl meanRxPacketSize_SCH_41_37 1438
scalar SlicingScenario.node[4].appl meanTxPacketSize_SCH_41_37 0
scalar SlicingScenario.node[4].appl meanRxThroughput_SCH_41_37 278078.9475257
scalar SlicingScenario.node[4].appl meanTxThroughput_SCH_41_37 0
scalar SlicingScenario.node[4].appl rxTimeOfService_SCH_41_37 82.68098036395
scalar SlicingScenario.node[4].appl txTimeOfService_SCH_41_37 0
scalar SlicingScenario.node[4].nic.phy80211p busyTime 0.37258890322584
scalar SlicingScenario.node[4].nic.phy80211p ncollisions 0
scalar SlicingScenario.node[4].nic.phy80211p UnderSensitivityPackets 1295
scalar SlicingScenario.node[4].nic.mac1609_4 ReceivedUnicastPackets_CCH 0
scalar SlicingScenario.node[4].nic.mac1609_4 ReceivedBroadcasts_CCH 0
scalar SlicingScenario.node[4].nic.mac1609_4 SentPackets_CCH 0
scalar SlicingScenario.node[4].nic.mac1609_4 SentAcknowledgements_CCH 0
scalar SlicingScenario.node[4].nic.mac1609_4 SNIRLostPackets_CCH 0
scalar SlicingScenario.node[4].nic.mac1609_4 RXTXLostPackets_CCH 0
scalar SlicingScenario.node[4].nic.mac1609_4 TotalLostPackets_CCH 0
scalar SlicingScenario.node[4].nic.mac1609_4 DroppedPacketsInMac_CCH 0
scalar SlicingScenario.node[4].nic.mac1609_4 TooLittleTime_CCH 0
scalar SlicingScenario.node[4].nic.mac1609_4 TimesIntoBackoff_CCH 0
scalar SlicingScenario.node[4].nic.mac1609_4 SlotsBackoff_CCH 0
scalar SlicingScenario.node[4].nic.mac1609_4 NumInternalContention_CCH 0
scalar SlicingScenario.node[4].nic.mac1609_4 RemainingPacketsInEDCA_CCH 0
scalar SlicingScenario.node[4].nic.mac1609_4 totalBusyTime_CCH 0
scalar SlicingScenario.node[4].nic.mac1609_4 ReceivedUnicastPackets_SCH 0
scalar SlicingScenario.node[4].nic.mac1609_4 ReceivedBroadcasts_SCH 17523
scalar SlicingScenario.node[4].nic.mac1609_4 SentPackets_SCH 0
scalar SlicingScenario.node[4].nic.mac1609_4 SentAcknowledgements_SCH 0
scalar SlicingScenario.node[4].nic.mac1609_4 SNIRLostPackets_SCH 0
scalar SlicingScenario.node[4].nic.mac1609_4 RXTXLostPackets_SCH 0
scalar SlicingScenario.node[4].nic.mac1609_4 TotalLostPackets_SCH 0
scalar SlicingScenario.node[4].nic.mac1609_4 DroppedPacketsInMac_SCH 0
scalar SlicingScenario.node[4].nic.mac1609_4 TooLittleTime_SCH 0
scalar SlicingScenario.node[4].nic.mac1609_4 TimesIntoBackoff_SCH 0
scalar SlicingScenario.node[4].nic.mac1609_4 SlotsBackoff_SCH 0
scalar SlicingScenario.node[4].nic.mac1609_4 NumInternalContention_SCH 0
scalar SlicingScenario.node[4].nic.mac1609_4 RemainingPacketsInEDCA_SCH 0
scalar SlicingScenario.node[4].nic.mac1609_4 totalBusyTime_SCH 34.650768
scalar SlicingScenario.node[4].veinsmobility startTime 2
scalar SlicingScenario.node[4].veinsmobility totalTime 92
scalar SlicingScenario.node[4].veinsmobility stopTime 95
scalar SlicingScenario.node[4].veinsmobility minSpeed 8.293610399459
scalar SlicingScenario.node[4].veinsmobility maxSpeed 11.109448646209
scalar SlicingScenario.node[4].veinsmobility totalDistance 981.26132734666
scalar SlicingScenario.node[4].veinsmobility totalCO2Emission 165.79392889946
scalar SlicingScenario.node[9].appl txPackets_CCH_67 0
scalar SlicingScenario.node[9].appl rxPackets_CCH_67 0
scalar SlicingScenario.node[9].appl rxNeighborPackets_CCH_67 0
scalar SlicingScenario.node[9].appl meanDelay_CCH_67 0
scalar SlicingScenario.node[9].appl meanJitter_CCH_67 0
scalar SlicingScenario.node[9].appl meanRxPacketSize_CCH_67 0
scalar SlicingScenario.node[9].appl meanTxPacketSize_CCH_67 0
scalar SlicingScenario.node[9].appl meanRxThroughput_CCH_67 0
scalar SlicingScenario.node[9].appl meanTxThroughput_CCH_67 0
scalar SlicingScenario.node[9].appl rxTimeOfService_CCH_67 0
scalar SlicingScenario.node[9].appl txTimeOfService_CCH_67 0
scalar SlicingScenario.node[9].appl txPackets_SCH_41_67 0
scalar SlicingScenario.node[9].appl rxPackets_SCH_41_67 1533
scalar SlicingScenario.node[9].appl rxNeighborPackets_SCH_41_67 14266
scalar SlicingScenario.node[9].appl meanDelay_SCH_41_67 39.976953749464
scalar SlicingScenario.node[9].appl meanJitter_SCH_41_67 0.04800545727
scalar SlicingScenario.node[9].appl meanRxPacketSize_SCH_41_67 1438
scalar SlicingScenario.node[9].appl meanTxPacketSize_SCH_41_67 0
scalar SlicingScenario.node[9].appl meanRxThroughput_SCH_41_67 243928.61516262
scalar SlicingScenario.node[9].appl meanTxThroughput_SCH_41_67 0
scalar SlicingScenario.node[9].appl rxTimeOfService_SCH_41_67 72.327061703024
scalar SlicingScenario.node[9].appl txTimeOfService_SCH_41_67 0
scalar SlicingScenario.node[9].nic.phy80211p busyTime 0.37663878260873
scalar SlicingScenario.node[9].nic.phy80211p ncollisions 0
scalar SlicingScenario.node[9].nic.phy80211p UnderSensitivityPackets 1295
scalar SlicingScenario.node[9].nic.mac1609_4 ReceivedUnicastPackets_CCH 0
scalar SlicingScenario.node[9].nic.mac1609_4 ReceivedBroadcasts_CCH 0
scalar SlicingScenario.node[9].nic.mac1609_4 SentPackets_CCH 0
scalar SlicingScenario.node[9].nic.mac1609_4 SentAcknowledgements_CCH 0
scalar SlicingScenario.node[9].nic.mac1609_4 SNIRLostPackets_CCH 0
scalar SlicingScenario.node[9].nic.mac1609_4 RXTXLostPackets_CCH 0
scalar SlicingScenario.node[9].nic.mac1609_4 TotalLostPackets_CCH 0
scalar SlicingScenario.node[9].nic.mac1609_4 DroppedPacketsInMac_CCH 0
scalar SlicingScenario.node[9].nic.mac1609_4 TooLittleTime_CCH 0
scalar SlicingScenario.node[9].nic.mac1609_4 TimesIntoBackoff_CCH 0
scalar SlicingScenario.node[9].nic.mac1609_4 SlotsBackoff_CCH 0
scalar SlicingScenario.node[9].nic.mac1609_4 NumInternalContention_CCH 0
scalar SlicingScenario.node[9].nic.mac1609_4 RemainingPacketsInEDCA_CCH 0
scalar SlicingScenario.node[9].nic.mac1609_4 totalBusyTime_CCH 0
scalar SlicingScenario.node[9].nic.mac1609_4 ReceivedUnicastPackets_SCH 0
scalar SlicingScenario.node[9].nic.mac1609_4 ReceivedBroadcasts_SCH 17523
scalar SlicingScenario.node[9].nic.mac1609_4 SentPackets_SCH 0
scalar SlicingScenario.node[9].nic.mac1609_4 SentAcknowledgements_SCH 0
scalar SlicingScenario.node[9].nic.mac1609_4 SNIRLostPackets_SCH 0
scalar SlicingScenario.node[9].nic.mac1609_4 RXTXLostPackets_SCH 0
scalar SlicingScenario.node[9].nic.mac1609_4 TotalLostPackets_SCH 0
scalar SlicingScenario.node[9].nic.mac1609_4 DroppedPacketsInMac_SCH 0
scalar SlicingScenario.node[9].nic.mac1609_4 TooLittleTime_SCH 0
scalar SlicingScenario.node[9].nic.mac1609_4 TimesIntoBackoff_SCH 0
scalar SlicingScenario.node[9].nic.mac1609_4 SlotsBackoff_SCH 0
scalar SlicingScenario.node[9].nic.mac1609_4 NumInternalContention_SCH 0
scalar SlicingScenario.node[9].nic.mac1609_4 RemainingPacketsInEDCA_SCH 0
scalar SlicingScenario.node[9].nic.mac1609_4 totalBusyTime_SCH 34.650768
scalar SlicingScenario.node[9].veinsmobility startTime 3
scalar SlicingScenario.node[9].veinsmobility totalTime 91
scalar SlicingScenario.node[9].veinsmobility stopTime 95
scalar SlicingScenario.node[9].veinsmobility minSpeed 10.617941112504
scalar SlicingScenario.node[9].veinsmobility maxSpeed 11.109183983542
scalar SlicingScenario.node[9].veinsmobility totalDistance 979.17001083124
scalar SlicingScenario.node[9].veinsmobility totalCO2Emission 159.30263137588
scalar SlicingScenario.node[5].appl txPackets_CCH_43 0
scalar SlicingScenario.node[5].appl rxPackets_CCH_43 0
scalar SlicingScenario.node[5].appl rxNeighborPackets_CCH_43 0
scalar SlicingScenario.node[5].appl meanDelay_CCH_43 0
scalar SlicingScenario.node[5].appl meanJitter_CCH_43 0
scalar SlicingScenario.node[5].appl meanRxPacketSize_CCH_43 0
scalar SlicingScenario.node[5].appl meanTxPacketSize_CCH_43 0
scalar SlicingScenario.node[5].appl meanRxThroughput_CCH_43 0
scalar SlicingScenario.node[5].appl meanTxThroughput_CCH_43 0
scalar SlicingScenario.node[5].appl rxTimeOfService_CCH_43 0
scalar SlicingScenario.node[5].appl txTimeOfService_CCH_43 0
scalar SlicingScenario.node[5].appl txPackets_SCH_40_43 0
scalar SlicingScenario.node[5].appl rxPackets_SCH_40_43 287
scalar SlicingScenario.node[5].appl rxNeighborPackets_SCH_40_43 1437
scalar SlicingScenario.node[5].appl meanDelay_SCH_40_43 31.914371210053
scalar SlicingScenario.node[5].appl meanJitter_SCH_40_43 0.256508012481
scalar SlicingScenario.node[5].appl meanRxPacketSize_SCH_40_43 1510
scalar SlicingScenario.node[5].appl meanTxPacketSize_SCH_40_43 0
scalar SlicingScenario.node[5].appl meanRxThroughput_SCH_40_43 41874.542932034
scalar SlicingScenario.node[5].appl meanTxThroughput_SCH_40_43 0
scalar SlicingScenario.node[5].appl rxTimeOfService_SCH_40_43 82.793978327768
scalar SlicingScenario.node[5].appl txTimeOfService_SCH_40_43 0
scalar SlicingScenario.node[5].nic.phy80211p busyTime 0.37258890322584
scalar SlicingScenario.node[5].nic.phy80211p ncollisions 0
scalar SlicingScenario.node[5].nic.phy80211p UnderSensitivityPackets 1295
scalar SlicingScenario.node[5].nic.mac1609_4 ReceivedUnicastPackets_CCH 0
scalar SlicingScenario.node[5].nic.mac1609_4 ReceivedBroadcasts_CCH 0
scalar SlicingScenario.node[5].nic.mac1609_4 SentPackets_CCH 0
scalar SlicingScenario.node[5].nic.mac1609_4 SentAcknowledgements_CCH 0
scalar SlicingScenario.node[5].nic.mac1609_4 SNIRLostPackets_CCH 0
scalar SlicingScenario.node[5].nic.mac1609_4 RXTXLostPackets_CCH 0
scalar SlicingScenario.node[5].nic.mac1609_4 TotalLostPackets_CCH 0
scalar SlicingScenario.node[5].nic.mac1609_4 DroppedPacketsInMac_CCH 0
scalar SlicingScenario.node[5].nic.mac1609_4 TooLittleTime_CCH 0
scalar SlicingScenario.node[5].nic.mac1609_4 TimesIntoBackoff_CCH 0
scalar SlicingScenario.node[5].nic.mac1609_4 SlotsBackoff_CCH 0
scalar SlicingScenario.node[5].nic.mac1609_4 NumInternalContention_CCH 0
scalar SlicingScenario.node[5].nic.mac1609_4 RemainingPacketsInEDCA_CCH 0
scalar SlicingScenario.node[5].nic.mac1609_4 totalBusyTime_CCH 0
scalar SlicingScenario.node[5].nic.mac1609_4 ReceivedUnicastPackets_SCH 0
scalar SlicingScenario.node[5].nic.mac1609_4 ReceivedBroadcasts_SCH 17523
scalar SlicingScenario.node[5].nic.mac1609_4 SentPackets_SCH 0
scalar SlicingScenario.node[5].nic.mac1609_4 SentAcknowledgements_SCH 0
scalar SlicingScenario.node[5].nic.mac1609_4 SNIRLostPackets_SCH 0
scalar SlicingScenario.node[5].nic.mac1609_4 RXTXLostPackets_SCH 0
scalar SlicingScenario.node[5].nic.mac1609_4 TotalLostPackets_SCH 0
scalar SlicingScenario.node[5].nic.mac1609_4 DroppedPacketsInMac_SCH 0
scalar SlicingScenario.node[5].nic.mac1609_4 TooLittleTime_SCH 0
scalar SlicingScenario.node[5].nic.mac1609_4 TimesIntoBackoff_SCH 0
scalar SlicingScenario.node[5].nic.mac1609_4 SlotsBackoff_SCH 0
scalar SlicingScenario.node[5].nic.mac1609_4 NumInternalContention_SCH 0
scalar SlicingScenario.node[5].nic.mac1609_4 RemainingPacketsInEDCA_SCH 0
scalar SlicingScenario.node[5].nic.mac1609_4 totalBusyTime_SCH 34.650768
scalar SlicingScenario.node[5].veinsmobility startTime 2
scalar SlicingScenario.node[5].veinsmobility totalTime 92
scalar SlicingScenario.node[5].veinsmobility stopTime 95
scalar SlicingScenario.node[5].veinsmobility minSpeed 8.1338394119968
scalar SlicingScenario.node[5].veinsmobility maxSpeed 11.107271072702
scalar SlicingScenario.node[5].veinsmobility totalDistance 981.26255703507
scalar SlicingScenario.node[5].veinsmobility totalCO2Emission 167.04000590725
scalar SlicingScenario.node[11].appl txPackets_CCH_79 0
scalar SlicingScenario.node[11].appl rxPackets_CCH_79 0
scalar SlicingScenario.node[11].appl rxNeighborPackets_CCH_79 0
scalar SlicingScenario.node[11].appl meanDelay_CCH_79 0
scalar SlicingScenario.node[11].appl meanJitter_CCH_79 0
scalar SlicingScenario.node[11].appl meanRxPacketSize_CCH_79 0
scalar SlicingScenario.node[11].appl meanTxPacketSize_CCH_79 0
scalar SlicingScenario.node[11].appl meanRxThroughput_CCH_79 0
scalar SlicingScenario.node[11].appl meanTxThroughput_CCH_79 0
scalar SlicingScenario.node[11].appl rxTimeOfService_CCH_79 0
scalar SlicingScenario.node[11].appl txTimeOfService_CCH_79 0
scalar SlicingScenario.node[11].appl txPackets_SCH_40_79 0
scalar SlicingScenario.node[11].appl rxPackets_SCH_40_79 196
scalar SlicingScenario.node[11].appl rxNeighborPackets_SCH_40_79 1580
scalar SlicingScenario.node[11].appl meanDelay_SCH_40_79 44.336996595464
scalar SlicingScenario.node[11].appl meanJitter_SCH_40_79 0.385675175556
scalar SlicingScenario.node[11].appl meanRxPacketSize_SCH_40_79 1510
scalar SlicingScenario.node[11].appl meanTxPacketSize_SCH_40_79 0
scalar SlicingScenario.node[11].appl meanRxThroughput_SCH_40_79 36787.79046764
scalar SlicingScenario.node[11].appl meanTxThroughput_SCH_40_79 0
scalar SlicingScenario.node[11].appl rxTimeOfService_SCH_40_79 64.360484005766
scalar SlicingScenario.node[11].appl txTimeOfService_SCH_40_79 0
scalar SlicingScenario.node[11].nic.phy80211p busyTime 0.38187509677422
scalar SlicingScenario.node[11].nic.phy80211p ncollisions 0
scalar SlicingScenario.node[11].nic.phy80211p UnderSensitivityPackets 1286
scalar SlicingScenario.node[11].nic.mac1609_4 ReceivedUnicastPackets_CCH 0
scalar SlicingScenario.node[11].nic.mac1609_4 ReceivedBroadcasts_CCH 0
scalar SlicingScenario.node[11].nic.mac1609_4 SentPackets_CCH 0
scalar SlicingScenario.node[11].nic.mac1609_4 SentAcknowledgements_CCH 0
scalar SlicingScenario.node[11].nic.mac1609_4 SNIRLostPackets_CCH 0
scalar SlicingScenario.node[11].nic.mac1609_4 RXTXLostPackets_CCH 0
scalar SlicingScenario.node[11].nic.mac1609_4 TotalLostPackets_CCH 0
scalar SlicingScenario.node[11].nic.mac1609_4 DroppedPacketsInMac_CCH 0
scalar SlicingScenario.node[11].nic.mac1609_4 TooLittleTime_CCH 0
scalar SlicingScenario.node[11].nic.mac1609_4 TimesIntoBackoff_CCH 0
scalar SlicingScenario.node[11].nic.mac1609_4 SlotsBackoff_CCH 0
scalar SlicingScenario.node[11].nic.mac1609_4 NumInternalContention_CCH 0
scalar SlicingScenario.node[11].nic.mac1609_4 RemainingPacketsInEDCA_CCH 0
scalar SlicingScenario.node[11].nic.mac1609_4 totalBusyTime_CCH 0
scalar SlicingScenario.node[11].nic.mac1609_4 ReceivedUnicastPackets_SCH 0
scalar SlicingScenario.node[11].nic.mac1609_4 ReceivedBroadcasts_SCH 17959
scalar SlicingScenario.node[11].nic.mac1609_4 SentPackets_SCH 0
scalar SlicingScenario.node[11].nic.mac1609_4 SentAcknowledgements_SCH 0
scalar SlicingScenario.node[11].nic.mac1609_4 SNIRLostPackets_SCH 0
scalar SlicingScenario.node[11].nic.mac1609_4 RXTXLostPackets_SCH 0
scalar SlicingScenario.node[11].nic.mac1609_4 TotalLostPackets_SCH 0
scalar SlicingScenario.node[11].nic.mac1609_4 DroppedPacketsInMac_SCH 0
scalar SlicingScenario.node[11].nic.mac1609_4 TooLittleTime_SCH 0
scalar SlicingScenario.node[11].nic.mac1609_4 TimesIntoBackoff_SCH 0
scalar SlicingScenario.node[11].nic.mac1609_4 SlotsBackoff_SCH 0
scalar SlicingScenario.node[11].nic.mac1609_4 NumInternalContention_SCH 0
scalar SlicingScenario.node[11].nic.mac1609_4 RemainingPacketsInEDCA_SCH 0
scalar SlicingScenario.node[11].nic.mac1609_4 totalBusyTime_SCH 35.514384
scalar SlicingScenario.node[11].veinsmobility startTime 4
scalar SlicingScenario.node[11].veinsmobility totalTime 92
scalar SlicingScenario.node[11].veinsmobility stopTime 97
scalar SlicingScenario.node[11].veinsmobility minSpeed 8.1954897255502
scalar SlicingScenario.node[11].veinsmobility maxSpeed 11.106628535097
scalar SlicingScenario.node[11].veinsmobility totalDistance 981.43123179846
scalar SlicingScenario.node[11].veinsmobility totalCO2Emission 167.3230841461
scalar SlicingScenario.node[8].appl txPackets_CCH_61 0
scalar SlicingScenario.node[8].appl rxPackets_CCH_61 0
scalar SlicingScenario.node[8].appl rxNeighborPackets_CCH_61 0
scalar SlicingScenario.node[8].appl meanDelay_CCH_61 0
scalar SlicingScenario.node[8].appl meanJitter_CCH_61 0
scalar SlicingScenario.node[8].appl meanRxPacketSize_CCH_61 0
scalar SlicingScenario.node[8].appl meanTxPacketSize_CCH_61 0
scalar SlicingScenario.node[8].appl meanRxThroughput_CCH_61 0
scalar SlicingScenario.node[8].appl meanTxThroughput_CCH_61 0
scalar SlicingScenario.node[8].appl rxTimeOfService_CCH_61 0
scalar SlicingScenario.node[8].appl txTimeOfService_CCH_61 0
scalar SlicingScenario.node[8].appl txPackets_SCH_40_61 0
scalar SlicingScenario.node[8].appl rxPackets_SCH_40_61 236
scalar SlicingScenario.node[8].appl rxNeighborPackets_SCH_40_61 1565
scalar SlicingScenario.node[8].appl meanDelay_SCH_40_61 39.453939729671
scalar SlicingScenario.node[8].appl meanJitter_SCH_40_61 0.323563746675
scalar SlicingScenario.node[8].appl meanRxPacketSize_SCH_40_61 1510
scalar SlicingScenario.node[8].appl meanTxPacketSize_SCH_40_61 0
scalar SlicingScenario.node[8].appl meanRxThroughput_SCH_40_61 36921.387864799
scalar SlicingScenario.node[8].appl meanTxThroughput_SCH_40_61 0
scalar SlicingScenario.node[8].appl rxTimeOfService_SCH_40_61 77.214865552712
scalar SlicingScenario.node[8].appl txTimeOfService_SCH_40_61 0
scalar SlicingScenario.node[8].nic.phy80211p busyTime 0.37827233684212
scalar SlicingScenario.node[8].nic.phy80211p ncollisions 0
scalar SlicingScenario.node[8].nic.phy80211p UnderSensitivityPackets 1287
scalar SlicingScenario.node[8].nic.mac1609_4 ReceivedUnicastPackets_CCH 0
scalar SlicingScenario.node[8].nic.mac1609_4 ReceivedBroadcasts_CCH 0
scalar SlicingScenario.node[8].nic.mac1609_4 SentPackets_CCH 0
scalar SlicingScenario.node[8].nic.mac1609_4 SentAcknowledgements_CCH 0
scalar SlicingScenario.node[8].nic.mac1609_4 SNIRLostPackets_CCH 0
scalar SlicingScenario.node[8].nic.mac1609_4 RXTXLostPackets_CCH 0
scalar SlicingScenario.node[8].nic.mac1609_4 TotalLostPackets_CCH 0
scalar SlicingScenario.node[8].nic.mac1609_4 DroppedPacketsInMac_CCH 0
scalar SlicingScenario.node[8].nic.mac1609_4 TooLittleTime_CCH 0
scalar SlicingScenario.node[8].nic.mac1609_4 TimesIntoBackoff_CCH 0
scalar SlicingScenario.node[8].nic.mac1609_4 SlotsBackoff_CCH 0
scalar SlicingScenario.node[8].nic.mac1609_4 NumInternalContention_CCH 0
scalar SlicingScenario.node[8].nic.mac1609_4 RemainingPacketsInEDCA_CCH 0
scalar SlicingScenario.node[8].nic.mac1609_4 totalBusyTime_CCH 0
scalar SlicingScenario.node[8].nic.mac1609_4 ReceivedUnicastPackets_SCH 0
scalar SlicingScenario.node[8].nic.mac1609_4 ReceivedBroadcasts_SCH 18172
scalar SlicingScenario.node[8].nic.mac1609_4 SentPackets_SCH 0
scalar SlicingScenario.node[8].nic.mac1609_4 SentAcknowledgements_SCH 0
scalar SlicingScenario.node[8].nic.mac1609_4 SNIRLostPackets_SCH 0
scalar SlicingScenario.node[8].nic.mac1609_4 RXTXLostPackets_SCH 0
scalar SlicingScenario.node[8].nic.mac1609_4 TotalLostPackets_SCH 0
scalar SlicingScenario.node[8].nic.mac1609_4 DroppedPacketsInMac_SCH 0
scalar SlicingScenario.node[8].nic.mac1609_4 TooLittleTime_SCH 0
scalar SlicingScenario.node[8].nic.mac1609_4 TimesIntoBackoff_SCH 0
scalar SlicingScenario.node[8].nic.mac1609_4 SlotsBackoff_SCH 0
scalar SlicingScenario.node[8].nic.mac1609_4 NumInternalContention_SCH 0
scalar SlicingScenario.node[8].nic.mac1609_4 RemainingPacketsInEDCA_SCH 0
scalar SlicingScenario.node[8].nic.mac1609_4 totalBusyTime_SCH 35.935872
scalar SlicingScenario.node[8].veinsmobility startTime 3
scalar SlicingScenario.node[8].veinsmobility totalTime 94
scalar SlicingScenario.node[8].veinsmobility stopTime 98
scalar SlicingScenario.node[8].veinsmobility minSpeed 4.5808416664572
scalar SlicingScenario.node[8].veinsmobility maxSpeed 11.092460172498
scalar SlicingScenario.node[8].veinsmobility totalDistance 983.10644124577
scalar SlicingScenario.node[8].veinsmobility totalCO2Emission 172.5010024191
scalar SlicingScenario.node[7].appl txPackets_CCH_55 0
scalar SlicingScenario.node[7].appl rxPackets_CCH_55 0
scalar SlicingScenario.node[7].appl rxNeighborPackets_CCH_55 0
scalar SlicingScenario.node[7].appl meanDelay_CCH_55 0
scalar SlicingScenario.node[7].appl meanJitter_CCH_55 0
scalar SlicingScenario.node[7].appl meanRxPacketSize_CCH_55 0
scalar SlicingScenario.node[7].appl meanTxPacketSize_CCH_55 0
scalar SlicingScenario.node[7].appl meanRxThroughput_CCH_55 0
scalar SlicingScenario.node[7].appl meanTxThroughput_CCH_55 0
scalar SlicingScenario.node[7].appl rxTimeOfService_CCH_55 0
scalar SlicingScenario.node[7].appl txTimeOfService_CCH_55 0
scalar SlicingScenario.node[7].appl txPackets_SCH_41_55 0
scalar SlicingScenario.node[7].appl rxPackets_SCH_41_55 1677
scalar SlicingScenario.node[7].appl rxNeighborPackets_SCH_41_55 14493
scalar SlicingScenario.node[7].appl meanDelay_SCH_41_55 39.009322018367
scalar SlicingScenario.node[7].appl meanJitter_SCH_41_55 0.04541262757
scalar SlicingScenario.node[7].appl meanRxPacketSize_SCH_41_55 1438
scalar SlicingScenario.node[7].appl meanTxPacketSize_SCH_41_55 0
scalar SlicingScenario.node[7].appl meanRxThroughput_SCH_41_55 245824.95443052
scalar SlicingScenario.node[7].appl meanTxThroughput_SCH_41_55 0
scalar SlicingScenario.node[7].appl rxTimeOfService_SCH_41_55 78.503665523731
scalar SlicingScenario.node[7].appl txTimeOfService_SCH_41_55 0
scalar SlicingScenario.node[7].nic.phy80211p busyTime 0.37376286315792
scalar SlicingScenario.node[7].nic.phy80211p ncollisions 0
scalar SlicingScenario.node[7].nic.phy80211p UnderSensitivityPackets 1504
scalar SlicingScenario.node[7].nic.mac1609_4 ReceivedUnicastPackets_CCH 0
scalar SlicingScenario.node[7].nic.mac1609_4 ReceivedBroadcasts_CCH 0
scalar SlicingScenario.node[7].nic.mac1609_4 SentPackets_CCH 0
scalar SlicingScenario.node[7].nic.mac1609_4 SentAcknowledgements_CCH 0
scalar SlicingScenario.node[7].nic.mac1609_4 SNIRLostPackets_CCH 0
scalar SlicingScenario.node[7].nic.mac1609_4 RXTXLostPackets_CCH 0
scalar SlicingScenario.node[7].nic.mac1609_4 TotalLostPackets_CCH 0
scalar SlicingScenario.node[7].nic.mac1609_4 DroppedPacketsInMac_CCH 0
scalar SlicingScenario.node[7].nic.mac1609_4 TooLittleTime_CCH 0
scalar SlicingScenario.node[7].nic.mac1609_4 TimesIntoBackoff_CCH 0
scalar SlicingScenario.node[7].nic.mac1609_4 SlotsBackoff_CCH 0
scalar SlicingScenario.node[7].nic.mac1609_4 NumInternalContention_CCH 0
scalar SlicingScenario.node[7].nic.mac1609_4 RemainingPacketsInEDCA_CCH 0
scalar SlicingScenario.node[7].nic.mac1609_4 totalBusyTime_CCH 0
scalar SlicingScenario.node[7].nic.mac1609_4 ReceivedUnicastPackets_SCH 0
scalar SlicingScenario.node[7].nic.mac1609_4 ReceivedBroadcasts_SCH 17955
scalar SlicingScenario.node[7].nic.mac1609_4 SentPackets_SCH 0
scalar SlicingScenario.node[7].nic.mac1609_4 SentAcknowledgements_SCH 0
scalar SlicingScenario.node[7].nic.mac1609_4 SNIRLostPackets_SCH 0
scalar SlicingScenario.node[7].nic.mac1609_4 RXTXLostPackets_SCH 0
scalar SlicingScenario.node[7].nic.mac1609_4 TotalLostPackets_SCH 0
scalar SlicingScenario.node[7].nic.mac1609_4 DroppedPacketsInMac_SCH 0
scalar SlicingScenario.node[7].nic.mac1609_4 TooLittleTime_SCH 0
scalar SlicingScenario.node[7].nic.mac1609_4 TimesIntoBackoff_SCH 0
scalar SlicingScenario.node[7].nic.mac1609_4 SlotsBackoff_SCH 0
scalar SlicingScenario.node[7].nic.mac1609_4 NumInternalContention_SCH 0
scalar SlicingScenario.node[7].nic.mac1609_4 RemainingPacketsInEDCA_SCH 0
scalar SlicingScenario.node[7].nic.mac1609_4 totalBusyTime_SCH 35.507472
scalar SlicingScenario.node[7].veinsmobility startTime 3
scalar SlicingScenario.node[7].veinsmobility totalTime 94
scalar SlicingScenario.node[7].veinsmobility stopTime 98
scalar SlicingScenario.node[7].veinsmobility minSpeed 4.8174862260451
scalar SlicingScenario.node[7].veinsmobility maxSpeed 11.106263197274
scalar SlicingScenario.node[7].veinsmobility totalDistance 983.97163081305
scalar SlicingScenario.node[7].veinsmobility totalCO2Emission 174.65658497005
scalar SlicingScenario.node[10].appl txPackets_CCH_73 0
scalar SlicingScenario.node[10].appl rxPackets_CCH_73 0
scalar SlicingScenario.node[10].appl rxNeighborPackets_CCH_73 0
scalar SlicingScenario.node[10].appl meanDelay_CCH_73 0
scalar SlicingScenario.node[10].appl meanJitter_CCH_73 0
scalar SlicingScenario.node[10].appl meanRxPacketSize_CCH_73 0
scalar SlicingScenario.node[10].appl meanTxPacketSize_CCH_73 0
scalar SlicingScenario.node[10].appl meanRxThroughput_CCH_73 0
scalar SlicingScenario.node[10].appl meanTxThroughput_CCH_73 0
scalar SlicingScenario.node[10].appl rxTimeOfService_CCH_73 0
scalar SlicingScenario.node[10].appl txTimeOfService_CCH_73 0
scalar SlicingScenario.node[10].appl txPackets_SCH_41_73 0
scalar SlicingScenario.node[10].appl rxPackets_SCH_41_73 1620
scalar SlicingScenario.node[10].appl rxNeighborPackets_SCH_41_73 14751
scalar SlicingScenario.node[10].appl meanDelay_SCH_41_73 40.305980097702
scalar SlicingScenario.node[10].appl meanJitter_SCH_41_73 0.047022231423
scalar SlicingScenario.node[10].appl meanRxPacketSize_SCH_41_73 1438
scalar SlicingScenario.node[10].appl meanTxPacketSize_SCH_41_73 0
scalar SlicingScenario.node[10].appl meanRxThroughput_SCH_41_73 244292.70109126
scalar SlicingScenario.node[10].appl meanTxThroughput_SCH_41_73 0
scalar SlicingScenario.node[10].appl rxTimeOfService_SCH_41_73 76.324834580444
scalar SlicingScenario.node[10].appl txTimeOfService_SCH_41_73 0
scalar SlicingScenario.node[10].nic.phy80211p busyTime 0.37827233684212
scalar SlicingScenario.node[10].nic.phy80211p ncollisions 0
scalar SlicingScenario.node[10].nic.phy80211p UnderSensitivityPackets 1287
scalar SlicingScenario.node[10].nic.mac1609_4 ReceivedUnicastPackets_CCH 0
scalar SlicingScenario.node[10].nic.mac1609_4 ReceivedBroadcasts_CCH 0
scalar SlicingScenario.node[10].nic.mac1609_4 SentPackets_CCH 0
scalar SlicingScenario.node[10].nic.mac1609_4 SentAcknowledgements_CCH 0
scalar SlicingScenario.node[10].nic.mac1609_4 SNIRLostPackets_CCH 0
scalar SlicingScenario.node[10].nic.mac1609_4 RXTXLostPackets_CCH 0
scalar SlicingScenario.node[10].nic.mac1609_4 TotalLostPackets_CCH 0
scalar SlicingScenario.node[10].nic.mac1609_4 DroppedPacketsInMac_CCH 0
scalar SlicingScenario.node[10].nic.mac1609_4 TooLittleTime_CCH 0
scalar SlicingScenario.node[10].nic.mac1609_4 TimesIntoBackoff_CCH 0
scalar SlicingScenario.node[10].nic.mac1609_4 SlotsBackoff_CCH 0
scalar SlicingScenario.node[10].nic.mac1609_4 NumInternalContention_CCH 0
scalar SlicingScenario.node[10].nic.mac1609_4 RemainingPacketsInEDCA_CCH 0
scalar SlicingScenario.node[10].nic.mac1609_4 totalBusyTime_CCH 0
scalar SlicingScenario.node[10].nic.mac1609_4 ReceivedUnicastPackets_SCH 0
scalar SlicingScenario.node[10].nic.mac1609_4 ReceivedBroadcasts_SCH 18172
scalar SlicingScenario.node[10].nic.mac1609_4 SentPackets_SCH 0
scalar SlicingScenario.node[10].nic.mac1609_4 SentAcknowledgements_SCH 0
scalar SlicingScenario.node[10].nic.mac1609_4 SNIRLostPackets_SCH 0
scalar SlicingScenario.node[10].nic.mac1609_4 RXTXLostPackets_SCH 0
scalar SlicingScenario.node[10].nic.mac1609_4 TotalLostPackets_SCH 0
scalar SlicingScenario.node[10].nic.mac1609_4 DroppedPacketsInMac_SCH 0
scalar SlicingScenario.node[10].nic.mac1609_4 TooLittleTime_SCH 0
scalar SlicingScenario.node[10].nic.mac1609_4 TimesIntoBackoff_SCH 0
scalar SlicingScenario.node[10].nic.mac1609_4 SlotsBackoff_SCH 0
scalar SlicingScenario.node[10].nic.mac1609_4 NumInternalContention_SCH 0
scalar SlicingScenario.node[10].nic.mac1609_4 RemainingPacketsInEDCA_SCH 0
scalar SlicingScenario.node[10].nic.mac1609_4 totalBusyTime_SCH 35.935872
scalar SlicingScenario.node[10].veinsmobility startTime 3
scalar SlicingScenario.node[10].veinsmobility totalTime 94
scalar SlicingScenario.node[10].veinsmobility stopTime 98
scalar SlicingScenario.node[10].veinsmobility minSpeed 4.7143804161563
scalar SlicingScenario.node[10].veinsmobility maxSpeed 11.108959250865
scalar SlicingScenario.node[10].veinsmobility totalDistance 981.09287419335
scalar SlicingScenario.node[10].veinsmobility totalCO2Emission 173.74408833098
scalar SlicingScenario.node[13].appl txPackets_CCH_91 0
scalar SlicingScenario.node[13].appl rxPackets_CCH_91 0
scalar SlicingScenario.node[13].appl rxNeighborPackets_CCH_91 0
scalar SlicingScenario.node[13].appl meanDelay_CCH_91 0
scalar SlicingScenario.node[13].appl meanJitter_CCH_91 0
scalar SlicingScenario.node[13].appl meanRxPacketSize_CCH_91 0
scalar SlicingScenario.node[13].appl meanTxPacketSize_CCH_91 0
scalar SlicingScenario.node[13].appl meanRxThroughput_CCH_91 0
scalar SlicingScenario.node[13].appl meanTxThroughput_CCH_91 0
scalar SlicingScenario.node[13].appl rxTimeOfService_CCH_91 0
scalar SlicingScenario.node[13].appl txTimeOfService_CCH_91 0
scalar SlicingScenario.node[13].appl txPackets_SCH_40_91 0
scalar SlicingScenario.node[13].appl rxPackets_SCH_40_91 139
scalar SlicingScenario.node[13].appl rxNeighborPackets_SCH_40_91 1662
scalar SlicingScenario.node[13].appl meanDelay_SCH_40_91 54.167249905078
scalar SlicingScenario.node[13].appl meanJitter_SCH_40_91 0.56440357939
scalar SlicingScenario.node[13].appl meanRxPacketSize_SCH_40_91 1510
scalar SlicingScenario.node[13].appl meanTxPacketSize_SCH_40_91 0
scalar SlicingScenario.node[13].appl meanRxThroughput_SCH_40_91 32551.336139695
scalar SlicingScenario.node[13].appl meanTxThroughput_SCH_40_91 0
scalar SlicingScenario.node[13].appl rxTimeOfService_SCH_40_91 51.583750442502
scalar SlicingScenario.node[13].appl txTimeOfService_SCH_40_91 0
scalar SlicingScenario.node[13].nic.phy80211p busyTime 0.37810560000002
scalar SlicingScenario.node[13].nic.phy80211p ncollisions 0
scalar SlicingScenario.node[13].nic.phy80211p UnderSensitivityPackets 1720
scalar SlicingScenario.node[13].nic.mac1609_4 ReceivedUnicastPackets_CCH 0
scalar SlicingScenario.node[13].nic.mac1609_4 ReceivedBroadcasts_CCH 0
scalar SlicingScenario.node[13].nic.mac1609_4 SentPackets_CCH 0
scalar SlicingScenario.node[13].nic.mac1609_4 SentAcknowledgements_CCH 0
scalar SlicingScenario.node[13].nic.mac1609_4 SNIRLostPackets_CCH 0
scalar SlicingScenario.node[13].nic.mac1609_4 RXTXLostPackets_CCH 0
scalar SlicingScenario.node[13].nic.mac1609_4 TotalLostPackets_CCH 0
scalar SlicingScenario.node[13].nic.mac1609_4 DroppedPacketsInMac_CCH 0
scalar SlicingScenario.node[13].nic.mac1609_4 TooLittleTime_CCH 0
scalar SlicingScenario.node[13].nic.mac1609_4 TimesIntoBackoff_CCH 0
scalar SlicingScenario.node[13].nic.mac1609_4 SlotsBackoff_CCH 0
scalar SlicingScenario.node[13].nic.mac1609_4 NumInternalContention_CCH 0
scalar SlicingScenario.node[13].nic.mac1609_4 RemainingPacketsInEDCA_CCH 0
scalar SlicingScenario.node[13].nic.mac1609_4 totalBusyTime_CCH 0
scalar SlicingScenario.node[13].nic.mac1609_4 ReceivedUnicastPackets_SCH 0
scalar SlicingScenario.node[13].nic.mac1609_4 ReceivedBroadcasts_SCH 18164
scalar SlicingScenario.node[13].nic.mac1609_4 SentPackets_SCH 0
scalar SlicingScenario.node[13].nic.mac1609_4 SentAcknowledgements_SCH 0
scalar SlicingScenario.node[13].nic.mac1609_4 SNIRLostPackets_SCH 0
scalar SlicingScenario.node[13].nic.mac1609_4 RXTXLostPackets_SCH 0
scalar SlicingScenario.node[13].nic.mac1609_4 TotalLostPackets_SCH 0
scalar SlicingScenario.node[13].nic.mac1609_4 DroppedPacketsInMac_SCH 0
scalar SlicingScenario.node[13].nic.mac1609_4 TooLittleTime_SCH 0
scalar SlicingScenario.node[13].nic.mac1609_4 TimesIntoBackoff_SCH 0
scalar SlicingScenario.node[13].nic.mac1609_4 SlotsBackoff_SCH 0
scalar SlicingScenario.node[13].nic.mac1609_4 NumInternalContention_SCH 0
scalar SlicingScenario.node[13].nic.mac1609_4 RemainingPacketsInEDCA_SCH 0
scalar SlicingScenario.node[13].nic.mac1609_4 totalBusyTime_SCH 35.920032
scalar SlicingScenario.node[13].veinsmobility startTime 5
scalar SlicingScenario.node[13].veinsmobility totalTime 94
scalar SlicingScenario.node[13].veinsmobility stopTime 100
scalar SlicingScenario.node[13].veinsmobility minSpeed 3.9738454497345
scalar SlicingScenario.node[13].veinsmobility maxSpeed 11.109062998802
scalar SlicingScenario.node[13].veinsmobility totalDistance 977.85407944394
scalar SlicingScenario.node[13].veinsmobility totalCO2Emission 174.32314096884
scalar SlicingScenario.node[15].appl txPackets_CCH_103 0
scalar SlicingScenario.node[15].appl rxPackets_CCH_103 0
scalar SlicingScenario.node[15].appl rxNeighborPackets_CCH_103 0
scalar SlicingScenario.node[15].appl meanDelay_CCH_103 0
scalar SlicingScenario.node[15].appl meanJitter_CCH_103 0
scalar SlicingScenario.node[15].appl meanRxPacketSize_CCH_103 0
scalar SlicingScenario.node[15].appl meanTxPacketSize_CCH_103 0
scalar SlicingScenario.node[15].appl meanRxThroughput_CCH_103 0
scalar SlicingScenario.node[15].appl meanTxThroughput_CCH_103 0
scalar SlicingScenario.node[15].appl rxTimeOfService_CCH_103 0
scalar SlicingScenario.node[15].appl txTimeOfService_CCH_103 0
scalar SlicingScenario.node[15].appl txPackets_SCH_41_103 0
scalar SlicingScenario.node[15].appl rxPackets_SCH_41_103 1008
scalar SlicingScenario.node[15].appl rxNeighborPackets_SCH_41_103 15740
scalar SlicingScenario.node[15].appl meanDelay_SCH_41_103 54.000017640573
scalar SlicingScenario.node[15].appl meanJitter_SCH_41_103 0.077438948927
scalar SlicingScenario.node[15].appl meanRxPacketSize_SCH_41_103 1438
scalar SlicingScenario.node[15].appl meanTxPacketSize_SCH_41_103 0
scalar SlicingScenario.node[15].appl meanRxThroughput_SCH_41_103 221916.51113598
scalar SlicingScenario.node[15].appl meanTxThroughput_SCH_41_103 0
scalar SlicingScenario.node[15].appl rxTimeOfService_SCH_41_103 52.274794428846
scalar SlicingScenario.node[15].appl txTimeOfService_SCH_41_103 0
scalar SlicingScenario.node[15].nic.phy80211p busyTime 0.3870588631579
scalar SlicingScenario.node[15].nic.phy80211p ncollisions 0
scalar SlicingScenario.node[15].nic.phy80211p UnderSensitivityPackets 1290
scalar SlicingScenario.node[15].nic.mac1609_4 ReceivedUnicastPackets_CCH 0
scalar SlicingScenario.node[15].nic.mac1609_4 ReceivedBroadcasts_CCH 0
scalar SlicingScenario.node[15].nic.mac1609_4 SentPackets_CCH 0
scalar SlicingScenario.node[15].nic.mac1609_4 SentAcknowledgements_CCH 0
scalar SlicingScenario.node[15].nic.mac1609_4 SNIRLostPackets_CCH 0
scalar SlicingScenario.node[15].nic.mac1609_4 RXTXLostPackets_CCH 0
scalar SlicingScenario.node[15].nic.mac1609_4 TotalLostPackets_CCH 0
scalar SlicingScenario.node[15].nic.mac1609_4 DroppedPacketsInMac_CCH 0
scalar SlicingScenario.node[15].nic.mac1609_4 TooLittleTime_CCH 0
scalar SlicingScenario.node[15].nic.mac1609_4 TimesIntoBackoff_CCH 0
scalar SlicingScenario.node[15].nic.mac1609_4 SlotsBackoff_CCH 0
scalar SlicingScenario.node[15].nic.mac1609_4 NumInternalContention_CCH 0
scalar SlicingScenario.node[15].nic.mac1609_4 RemainingPacketsInEDCA_CCH 0
scalar SlicingScenario.node[15].nic.mac1609_4 totalBusyTime_CCH 0
scalar SlicingScenario.node[15].nic.mac1609_4 ReceivedUnicastPackets_SCH 0
scalar SlicingScenario.node[15].nic.mac1609_4 ReceivedBroadcasts_SCH 18594
scalar SlicingScenario.node[15].nic.mac1609_4 SentPackets_SCH 0
scalar SlicingScenario.node[15].nic.mac1609_4 SentAcknowledgements_SCH 0
scalar SlicingScenario.node[15].nic.mac1609_4 SNIRLostPackets_SCH 0
scalar SlicingScenario.node[15].nic.mac1609_4 RXTXLostPackets_SCH 0
scalar SlicingScenario.node[15].nic.mac1609_4 TotalLostPackets_SCH 0
scalar SlicingScenario.node[15].nic.mac1609_4 DroppedPacketsInMac_SCH 0
scalar SlicingScenario.node[15].nic.mac1609_4 TooLittleTime_SCH 0
scalar SlicingScenario.node[15].nic.mac1609_4 TimesIntoBackoff_SCH 0
scalar SlicingScenario.node[15].nic.mac1609_4 SlotsBackoff_SCH 0
scalar SlicingScenario.node[15].nic.mac1609_4 NumInternalContention_SCH 0
scalar SlicingScenario.node[15].nic.mac1609_4 RemainingPacketsInEDCA_SCH 0
scalar SlicingScenario.node[15].nic.mac1609_4 totalBusyTime_SCH 36.770592
scalar SlicingScenario.node[15].veinsmobility startTime 5
scalar SlicingScenario.node[15].veinsmobility totalTime 94
scalar SlicingScenario.node[15].veinsmobility stopTime 100
scalar SlicingScenario.node[15].veinsmobility minSpeed 4.5958974556033
scalar SlicingScenario.node[15].veinsmobility maxSpeed 11.098273684401
scalar SlicingScenario.node[15].veinsmobility totalDistance 979.97245710545
scalar SlicingScenario.node[15].veinsmobility totalCO2Emission 174.2869292397
scalar SlicingScenario.node[12].appl txPackets_CCH_85 0
scalar SlicingScenario.node[12].appl rxPackets_CCH_85 0
scalar SlicingScenario.node[12].appl rxNeighborPackets_CCH_85 0
scalar SlicingScenario.node[12].appl meanDelay_CCH_85 0
scalar SlicingScenario.node[12].appl meanJitter_CCH_85 0
scalar SlicingScenario.node[12].appl meanRxPacketSize_CCH_85 0
scalar SlicingScenario.node[12].appl meanTxPacketSize_CCH_85 0
scalar SlicingScenario.node[12].appl meanRxThroughput_CCH_85 0
scalar SlicingScenario.node[12].appl meanTxThroughput_CCH_85 0
scalar SlicingScenario.node[12].appl rxTimeOfService_CCH_85 0
scalar SlicingScenario.node[12].appl txTimeOfService_CCH_85 0
scalar SlicingScenario.node[12].appl txPackets_SCH_40_85 0
scalar SlicingScenario.node[12].appl rxPackets_SCH_40_85 147
scalar SlicingScenario.node[12].appl rxNeighborPackets_SCH_40_85 1699
scalar SlicingScenario.node[12].appl meanDelay_SCH_40_85 53.582824453636
scalar SlicingScenario.node[12].appl meanJitter_SCH_40_85 0.534202655392
scalar SlicingScenario.node[12].appl meanRxPacketSize_SCH_40_85 1510
scalar SlicingScenario.node[12].appl meanTxPacketSize_SCH_40_85 0
scalar SlicingScenario.node[12].appl meanRxThroughput_SCH_40_85 33453.91281782
scalar SlicingScenario.node[12].appl meanTxThroughput_SCH_40_85 0
scalar SlicingScenario.node[12].appl rxTimeOfService_SCH_40_85 53.08078638425
scalar SlicingScenario.node[12].appl txTimeOfService_SCH_40_85 0
scalar SlicingScenario.node[12].nic.phy80211p busyTime 0.3870588631579
scalar SlicingScenario.node[12].nic.phy80211p ncollisions 0
scalar SlicingScenario.node[12].nic.phy80211p UnderSensitivityPackets 1290
scalar SlicingScenario.node[12].nic.mac1609_4 ReceivedUnicastPackets_CCH 0
scalar SlicingScenario.node[12].nic.mac1609_4 ReceivedBroadcasts_CCH 0
scalar SlicingScenario.node[12].nic.mac1609_4 SentPackets_CCH 0
scalar SlicingScenario.node[12].nic.mac1609_4 SentAcknowledgements_CCH 0
scalar SlicingScenario.node[12].nic.mac1609_4 SNIRLostPackets_CCH 0
scalar SlicingScenario.node[12].nic.mac1609_4 RXTXLostPackets_CCH 0
scalar SlicingScenario.node[12].nic.mac1609_4 TotalLostPackets_CCH 0
scalar SlicingScenario.node[12].nic.mac1609_4 DroppedPacketsInMac_CCH 0
scalar SlicingScenario.node[12].nic.mac1609_4 TooLittleTime_CCH 0
scalar SlicingScenario.node[12].nic.mac1609_4 TimesIntoBackoff_CCH 0
scalar SlicingScenario.node[12].nic.mac1609_4 SlotsBackoff_CCH 0
scalar SlicingScenario.node[12].nic.mac1609_4 NumInternalContention_CCH 0
scalar SlicingScenario.node[12].nic.mac1609_4 RemainingPacketsInEDCA_CCH 0
scalar SlicingScenario.node[12].nic.mac1609_4 totalBusyTime_CCH 0
scalar SlicingScenario.node[12].nic.mac1609_4 ReceivedUnicastPackets_SCH 0
scalar SlicingScenario.node[12].nic.mac1609_4 ReceivedBroadcasts_SCH 18594
scalar SlicingScenario.node[12].nic.mac1609_4 SentPackets_SCH 0
scalar SlicingScenario.node[12].nic.mac1609_4 SentAcknowledgements_SCH 0
scalar SlicingScenario.node[12].nic.mac1609_4 SNIRLostPackets_SCH 0
scalar SlicingScenario.node[12].nic.mac1609_4 RXTXLostPackets_SCH 0
scalar SlicingScenario.node[12].nic.mac1609_4 TotalLostPackets_SCH 0
scalar SlicingScenario.node[12].nic.mac1609_4 DroppedPacketsInMac_SCH 0
scalar SlicingScenario.node[12].nic.mac1609_4 TooLittleTime_SCH 0
scalar SlicingScenario.node[12].nic.mac1609_4 TimesIntoBackoff_SCH 0
scalar SlicingScenario.node[12].nic.mac1609_4 SlotsBackoff_SCH 0
scalar SlicingScenario.node[12].nic.mac1609_4 NumInternalContention_SCH 0
scalar SlicingScenario.node[12].nic.mac1609_4 RemainingPacketsInEDCA_SCH 0
scalar SlicingScenario.node[12].nic.mac1609_4 totalBusyTime_SCH 36.770592
scalar SlicingScenario.node[12].veinsmobility startTime 5
scalar SlicingScenario.node[12].veinsmobility totalTime 94
scalar SlicingScenario.node[12].veinsmobility stopTime 100
scalar SlicingScenario.node[12].veinsmobility minSpeed 4.7193216555272
scalar SlicingScenario.node[12].veinsmobility maxSpeed 11.106697609778
scalar SlicingScenario.node[12].veinsmobility totalDistance 980.09382270384
scalar SlicingScenario.node[12].veinsmobility totalCO2Emission 174.58579576521
scalar SlicingScenario.node[14].appl txPackets_CCH_97 0
scalar SlicingScenario.node[14].appl rxPackets_CCH_97 0
scalar SlicingScenario.node[14].appl rxNeighborPackets_CCH_97 0
scalar SlicingScenario.node[14].appl meanDelay_CCH_97 0
scalar SlicingScenario.node[14].appl meanJitter_CCH_97 0
scalar SlicingScenario.node[14].appl meanRxPacketSize_CCH_97 0
scalar SlicingScenario.node[14].appl meanTxPacketSize_CCH_97 0
scalar SlicingScenario.node[14].appl meanRxThroughput_CCH_97 0
scalar SlicingScenario.node[14].appl meanTxThroughput_CCH_97 0
scalar SlicingScenario.node[14].appl rxTimeOfService_CCH_97 0
scalar SlicingScenario.node[14].appl txTimeOfService_CCH_97 0
scalar SlicingScenario.node[14].appl txPackets_SCH_41_97 0
scalar SlicingScenario.node[14].appl rxPackets_SCH_41_97 987
scalar SlicingScenario.node[14].appl rxNeighborPackets_SCH_41_97 15572
scalar SlicingScenario.node[14].appl meanDelay_SCH_41_97 53.872000081129
scalar SlicingScenario.node[14].appl meanJitter_SCH_41_97 0.079007543433
scalar SlicingScenario.node[14].appl meanRxPacketSize_SCH_41_97 1438
scalar SlicingScenario.node[14].appl meanTxPacketSize_SCH_41_97 0
scalar SlicingScenario.node[14].appl meanRxThroughput_SCH_41_97 217300.2008607
scalar SlicingScenario.node[14].appl meanTxThroughput_SCH_41_97 0
scalar SlicingScenario.node[14].appl rxTimeOfService_SCH_41_97 52.273122413179
scalar SlicingScenario.node[14].appl txTimeOfService_SCH_41_97 0
scalar SlicingScenario.node[14].nic.phy80211p busyTime 0.38260042105265
scalar SlicingScenario.node[14].nic.phy80211p ncollisions 0
scalar SlicingScenario.node[14].nic.phy80211p UnderSensitivityPackets 1504
scalar SlicingScenario.node[14].nic.mac1609_4 ReceivedUnicastPackets_CCH 0
scalar SlicingScenario.node[14].nic.mac1609_4 ReceivedBroadcasts_CCH 0
scalar SlicingScenario.node[14].nic.mac1609_4 SentPackets_CCH 0
scalar SlicingScenario.node[14].nic.mac1609_4 SentAcknowledgements_CCH 0
scalar SlicingScenario.node[14].nic.mac1609_4 SNIRLostPackets_CCH 0
scalar SlicingScenario.node[14].nic.mac1609_4 RXTXLostPackets_CCH 0
scalar SlicingScenario.node[14].nic.mac1609_4 TotalLostPackets_CCH 0
scalar SlicingScenario.node[14].nic.mac1609_4 DroppedPacketsInMac_CCH 0
scalar SlicingScenario.node[14].nic.mac1609_4 TooLittleTime_CCH 0
scalar SlicingScenario.node[14].nic.mac1609_4 TimesIntoBackoff_CCH 0
scalar SlicingScenario.node[14].nic.mac1609_4 SlotsBackoff_CCH 0
scalar SlicingScenario.node[14].nic.mac1609_4 NumInternalContention_CCH 0
scalar SlicingScenario.node[14].nic.mac1609_4 RemainingPacketsInEDCA_CCH 0
scalar SlicingScenario.node[14].nic.mac1609_4 totalBusyTime_CCH 0
scalar SlicingScenario.node[14].nic.mac1609_4 ReceivedUnicastPackets_SCH 0
scalar SlicingScenario.node[14].nic.mac1609_4 ReceivedBroadcasts_SCH 18380
scalar SlicingScenario.node[14].nic.mac1609_4 SentPackets_SCH 0
scalar SlicingScenario.node[14].nic.mac1609_4 SentAcknowledgements_SCH 0
scalar SlicingScenario.node[14].nic.mac1609_4 SNIRLostPackets_SCH 0
scalar SlicingScenario.node[14].nic.mac1609_4 RXTXLostPackets_SCH 0
scalar SlicingScenario.node[14].nic.mac1609_4 TotalLostPackets_SCH 0
scalar SlicingScenario.node[14].nic.mac1609_4 DroppedPacketsInMac_SCH 0
scalar SlicingScenario.node[14].nic.mac1609_4 TooLittleTime_SCH 0
scalar SlicingScenario.node[14].nic.mac1609_4 TimesIntoBackoff_SCH 0
scalar SlicingScenario.node[14].nic.mac1609_4 SlotsBackoff_SCH 0
scalar SlicingScenario.node[14].nic.mac1609_4 NumInternalContention_SCH 0
scalar SlicingScenario.node[14].nic.mac1609_4 RemainingPacketsInEDCA_SCH 0
scalar SlicingScenario.node[14].nic.mac1609_4 totalBusyTime_SCH 36.34704
scalar SlicingScenario.node[14].veinsmobility startTime 5
scalar SlicingScenario.node[14].veinsmobility totalTime 94
scalar SlicingScenario.node[14].veinsmobility stopTime 100
scalar SlicingScenario.node[14].veinsmobility minSpeed 4.2149396393416
scalar SlicingScenario.node[14].veinsmobility maxSpeed 11.107018582071
scalar SlicingScenario.node[14].veinsmobility totalDistance 978.62388966606
scalar SlicingScenario.node[14].veinsmobility totalCO2Emission 174.62899354393
scalar SlicingScenario.node[17].appl txPackets_CCH_115 0
scalar SlicingScenario.node[17].appl rxPackets_CCH_115 0
scalar SlicingScenario.node[17].appl rxNeighborPackets_CCH_115 0
scalar SlicingScenario.node[17].appl meanDelay_CCH_115 0
scalar SlicingScenario.node[17].appl meanJitter_CCH_115 0
scalar SlicingScenario.node[17].appl meanRxPacketSize_CCH_115 0
scalar SlicingScenario.node[17].appl meanTxPacketSize_CCH_115 0
scalar SlicingScenario.node[17].appl meanRxThroughput_CCH_115 0
scalar SlicingScenario.node[17].appl meanTxThroughput_CCH_115 0
scalar SlicingScenario.node[17].appl rxTimeOfService_CCH_115 0
scalar SlicingScenario.node[17].appl txTimeOfService_CCH_115 0
scalar SlicingScenario.node[17].appl txPackets_SCH_41_115 0
scalar SlicingScenario.node[17].appl rxPackets_SCH_41_115 392
scalar SlicingScenario.node[17].appl rxNeighborPackets_SCH_41_115 16551
scalar SlicingScenario.node[17].appl meanDelay_SCH_41_115 70.318220149837
scalar SlicingScenario.node[17].appl meanJitter_SCH_41_115 0.203373079249
scalar SlicingScenario.node[17].appl meanRxPacketSize_SCH_41_115 1438
scalar SlicingScenario.node[17].appl meanTxPacketSize_SCH_41_115 0
scalar SlicingScenario.node[17].appl meanRxThroughput_SCH_41_115 218934.1877095
scalar SlicingScenario.node[17].appl meanTxThroughput_SCH_41_115 0
scalar SlicingScenario.node[17].appl rxTimeOfService_SCH_41_115 20.606009720081
scalar SlicingScenario.node[17].appl txTimeOfService_SCH_41_115 0
scalar SlicingScenario.node[17].nic.phy80211p busyTime 0.39143797894737
scalar SlicingScenario.node[17].nic.phy80211p ncollisions 0
scalar SlicingScenario.node[17].nic.phy80211p UnderSensitivityPackets 1506
scalar SlicingScenario.node[17].nic.mac1609_4 ReceivedUnicastPackets_CCH 0
scalar SlicingScenario.node[17].nic.mac1609_4 ReceivedBroadcasts_CCH 0
scalar SlicingScenario.node[17].nic.mac1609_4 SentPackets_CCH 0
scalar SlicingScenario.node[17].nic.mac1609_4 SentAcknowledgements_CCH 0
scalar SlicingScenario.node[17].nic.mac1609_4 SNIRLostPackets_CCH 0
scalar SlicingScenario.node[17].nic.mac1609_4 RXTXLostPackets_CCH 0
scalar SlicingScenario.node[17].nic.mac1609_4 TotalLostPackets_CCH 0
scalar SlicingScenario.node[17].nic.mac1609_4 DroppedPacketsInMac_CCH 0
scalar SlicingScenario.node[17].nic.mac1609_4 TooLittleTime_CCH 0
scalar SlicingScenario.node[17].nic.mac1609_4 TimesIntoBackoff_CCH 0
scalar SlicingScenario.node[17].nic.mac1609_4 SlotsBackoff_CCH 0
scalar SlicingScenario.node[17].nic.mac1609_4 NumInternalContention_CCH 0
scalar SlicingScenario.node[17].nic.mac1609_4 RemainingPacketsInEDCA_CCH 0
scalar SlicingScenario.node[17].nic.mac1609_4 totalBusyTime_CCH 0
scalar SlicingScenario.node[17].nic.mac1609_4 ReceivedUnicastPackets_SCH 0
scalar SlicingScenario.node[17].nic.mac1609_4 ReceivedBroadcasts_SCH 18805
scalar SlicingScenario.node[17].nic.mac1609_4 SentPackets_SCH 0
scalar SlicingScenario.node[17].nic.mac1609_4 SentAcknowledgements_SCH 0
scalar SlicingScenario.node[17].nic.mac1609_4 SNIRLostPackets_SCH 0
scalar SlicingScenario.node[17].nic.mac1609_4 RXTXLostPackets_SCH 0
scalar SlicingScenario.node[17].nic.mac1609_4 TotalLostPackets_SCH 0
scalar SlicingScenario.node[17].nic.mac1609_4 DroppedPacketsInMac_SCH 0
scalar SlicingScenario.node[17].nic.mac1609_4 TooLittleTime_SCH 0
scalar SlicingScenario.node[17].nic.mac1609_4 TimesIntoBackoff_SCH 0
scalar SlicingScenario.node[17].nic.mac1609_4 SlotsBackoff_SCH 0
scalar SlicingScenario.node[17].nic.mac1609_4 NumInternalContention_SCH 0
scalar SlicingScenario.node[17].nic.mac1609_4 RemainingPacketsInEDCA_SCH 0
scalar SlicingScenario.node[17].nic.mac1609_4 totalBusyTime_SCH 37.186608
scalar SlicingScenario.node[17].veinsmobility startTime 7
scalar SlicingScenario.node[17].veinsmobility totalTime 94
scalar SlicingScenario.node[17].veinsmobility stopTime 102
scalar SlicingScenario.node[17].veinsmobility minSpeed 4.3440503318473
scalar SlicingScenario.node[17].veinsmobility maxSpeed 11.099603225607
scalar SlicingScenario.node[17].veinsmobility totalDistance 979.23492672492
scalar SlicingScenario.node[17].veinsmobility totalCO2Emission 175.61303292328
scalar SlicingScenario.node[19].appl txPackets_CCH_127 0
scalar SlicingScenario.node[19].appl rxPackets_CCH_127 0
scalar SlicingScenario.node[19].appl rxNeighborPackets_CCH_127 0
scalar SlicingScenario.node[19].appl meanDelay_CCH_127 0
scalar SlicingScenario.node[19].appl meanJitter_CCH_127 0
scalar SlicingScenario.node[19].appl meanRxPacketSize_CCH_127 0
scalar SlicingScenario.node[19].appl meanTxPacketSize_CCH_127 0
scalar SlicingScenario.node[19].appl meanRxThroughput_CCH_127 0
scalar SlicingScenario.node[19].appl meanTxThroughput_CCH_127 0
scalar SlicingScenario.node[19].appl rxTimeOfService_CCH_127 0
scalar SlicingScenario.node[19].appl txTimeOfService_CCH_127 0
scalar SlicingScenario.node[19].appl txPackets_SCH_40_127 0
scalar SlicingScenario.node[19].appl rxPackets_SCH_40_127 62
scalar SlicingScenario.node[19].appl rxNeighborPackets_SCH_40_127 1800
scalar SlicingScenario.node[19].appl meanDelay_SCH_40_127 69.556069395472
scalar SlicingScenario.node[19].appl meanJitter_SCH_40_127 1.307671632747
scalar SlicingScenario.node[19].appl meanRxPacketSize_SCH_40_127 1510
scalar SlicingScenario.node[19].appl meanTxPacketSize_SCH_40_127 0
scalar SlicingScenario.node[19].appl meanRxThroughput_SCH_40_127 33033.191878271
scalar SlicingScenario.node[19].appl meanTxThroughput_SCH_40_127 0
scalar SlicingScenario.node[19].appl rxTimeOfService_SCH_40_127 22.67295279124
scalar SlicingScenario.node[19].appl txTimeOfService_SCH_40_127 0
scalar SlicingScenario.node[19].nic.phy80211p busyTime 0.39143797894737
scalar SlicingScenario.node[19].nic.phy80211p ncollisions 0
scalar SlicingScenario.node[19].nic.phy80211p UnderSensitivityPackets 1506
scalar SlicingScenario.node[19].nic.mac1609_4 ReceivedUnicastPackets_CCH 0
scalar SlicingScenario.node[19].nic.mac1609_4 ReceivedBroadcasts_CCH 0
scalar SlicingScenario.node[19].nic.mac1609_4 SentPackets_CCH 0
scalar SlicingScenario.node[19].nic.mac1609_4 SentAcknowledgements_CCH 0
scalar SlicingScenario.node[19].nic.mac1609_4 SNIRLostPackets_CCH 0
scalar SlicingScenario.node[19].nic.mac1609_4 RXTXLostPackets_CCH 0
scalar SlicingScenario.node[19].nic.mac1609_4 TotalLostPackets_CCH 0
scalar SlicingScenario.node[19].nic.mac1609_4 DroppedPacketsInMac_CCH 0
scalar SlicingScenario.node[19].nic.mac1609_4 TooLittleTime_CCH 0
scalar SlicingScenario.node[19].nic.mac1609_4 TimesIntoBackoff_CCH 0
scalar SlicingScenario.node[19].nic.mac1609_4 SlotsBackoff_CCH 0
scalar SlicingScenario.node[19].nic.mac1609_4 NumInternalContention_CCH 0
scalar SlicingScenario.node[19].nic.mac1609_4 RemainingPacketsInEDCA_CCH 0
scalar SlicingScenario.node[19].nic.mac1609_4 totalBusyTime_CCH 0
scalar SlicingScenario.node[19].nic.mac1609_4 ReceivedUnicastPackets_SCH 0
scalar SlicingScenario.node[19].nic.mac1609_4 ReceivedBroadcasts_SCH 18805
scalar SlicingScenario.node[19].nic.mac1609_4 SentPackets_SCH 0
scalar SlicingScenario.node[19].nic.mac1609_4 SentAcknowledgements_SCH 0
scalar SlicingScenario.node[19].nic.mac1609_4 SNIRLostPackets_SCH 0
scalar SlicingScenario.node[19].nic.mac1609_4 RXTXLostPackets_SCH 0
scalar SlicingScenario.node[19].nic.mac1609_4 TotalLostPackets_SCH 0
scalar SlicingScenario.node[19].nic.mac1609_4 DroppedPacketsInMac_SCH 0
scalar SlicingScenario.node[19].nic.mac1609_4 TooLittleTime_SCH 0
scalar SlicingScenario.node[19].nic.mac1609_4 TimesIntoBackoff_SCH 0
scalar SlicingScenario.node[19].nic.mac1609_4 SlotsBackoff_SCH 0
scalar SlicingScenario.node[19].nic.mac1609_4 NumInternalContention_SCH 0
scalar SlicingScenario.node[19].nic.mac1609_4 RemainingPacketsInEDCA_SCH 0
scalar SlicingScenario.node[19].nic.mac1609_4 totalBusyTime_SCH 37.186608
scalar SlicingScenario.node[19].veinsmobility startTime 7
scalar SlicingScenario.node[19].veinsmobility totalTime 94
scalar SlicingScenario.node[19].veinsmobility stopTime 102
scalar SlicingScenario.node[19].veinsmobility minSpeed 4.0365638818094
scalar SlicingScenario.node[19].veinsmobility maxSpeed 11.109549320433
scalar SlicingScenario.node[19].veinsmobility totalDistance 979.2133575837
scalar SlicingScenario.node[19].veinsmobility totalCO2Emission 174.50496080326
scalar SlicingScenario.node[16].appl txPackets_CCH_109 0
scalar SlicingScenario.node[16].appl rxPackets_CCH_109 0
scalar SlicingScenario.node[16].appl rxNeighborPackets_CCH_109 0
scalar SlicingScenario.node[16].appl meanDelay_CCH_109 0
scalar SlicingScenario.node[16].appl meanJitter_CCH_109 0
scalar SlicingScenario.node[16].appl meanRxPacketSize_CCH_109 0
scalar SlicingScenario.node[16].appl meanTxPacketSize_CCH_109 0
scalar SlicingScenario.node[16].appl meanRxThroughput_CCH_109 0
scalar SlicingScenario.node[16].appl meanTxThroughput_CCH_109 0
scalar SlicingScenario.node[16].appl rxTimeOfService_CCH_109 0
scalar SlicingScenario.node[16].appl txTimeOfService_CCH_109 0
scalar SlicingScenario.node[16].appl txPackets_SCH_40_109 0
scalar SlicingScenario.node[16].appl rxPackets_SCH_40_109 68
scalar SlicingScenario.node[16].appl rxNeighborPackets_SCH_40_109 1867
scalar SlicingScenario.node[16].appl meanDelay_SCH_40_109 70.065883023322
scalar SlicingScenario.node[16].appl meanJitter_SCH_40_109 1.214849442471
scalar SlicingScenario.node[16].appl meanRxPacketSize_SCH_40_109 1510
scalar SlicingScenario.node[16].appl meanTxPacketSize_SCH_40_109 0
scalar SlicingScenario.node[16].appl meanRxThroughput_SCH_40_109 29530.458726636
scalar SlicingScenario.node[16].appl meanTxThroughput_SCH_40_109 0
scalar SlicingScenario.node[16].appl rxTimeOfService_SCH_40_109 27.816703004992
scalar SlicingScenario.node[16].appl txTimeOfService_SCH_40_109 0
scalar SlicingScenario.node[16].nic.phy80211p busyTime 0.39646663917525
scalar SlicingScenario.node[16].nic.phy80211p ncollisions 0
scalar SlicingScenario.node[16].nic.phy80211p UnderSensitivityPackets 1293
scalar SlicingScenario.node[16].nic.mac1609_4 ReceivedUnicastPackets_CCH 0
scalar SlicingScenario.node[16].nic.mac1609_4 ReceivedBroadcasts_CCH 0
scalar SlicingScenario.node[16].nic.mac1609_4 SentPackets_CCH 0
scalar SlicingScenario.node[16].nic.mac1609_4 SentAcknowledgements_CCH 0
scalar SlicingScenario.node[16].nic.mac1609_4 SNIRLostPackets_CCH 0
scalar SlicingScenario.node[16].nic.mac1609_4 RXTXLostPackets_CCH 0
scalar SlicingScenario.node[16].nic.mac1609_4 TotalLostPackets_CCH 0
scalar SlicingScenario.node[16].nic.mac1609_4 DroppedPacketsInMac_CCH 0
scalar SlicingScenario.node[16].nic.mac1609_4 TooLittleTime_CCH 0
scalar SlicingScenario.node[16].nic.mac1609_4 TimesIntoBackoff_CCH 0
scalar SlicingScenario.node[16].nic.mac1609_4 SlotsBackoff_CCH 0
scalar SlicingScenario.node[16].nic.mac1609_4 NumInternalContention_CCH 0
scalar SlicingScenario.node[16].nic.mac1609_4 RemainingPacketsInEDCA_CCH 0
scalar SlicingScenario.node[16].nic.mac1609_4 totalBusyTime_CCH 0
scalar SlicingScenario.node[16].nic.mac1609_4 ReceivedUnicastPackets_SCH 0
scalar SlicingScenario.node[16].nic.mac1609_4 ReceivedBroadcasts_SCH 19447
scalar SlicingScenario.node[16].nic.mac1609_4 SentPackets_SCH 0
scalar SlicingScenario.node[16].nic.mac1609_4 SentAcknowledgements_SCH 0
scalar SlicingScenario.node[16].nic.mac1609_4 SNIRLostPackets_SCH 0
scalar SlicingScenario.node[16].nic.mac1609_4 RXTXLostPackets_SCH 0
scalar SlicingScenario.node[16].nic.mac1609_4 TotalLostPackets_SCH 0
scalar SlicingScenario.node[16].nic.mac1609_4 DroppedPacketsInMac_SCH 0
scalar SlicingScenario.node[16].nic.mac1609_4 TooLittleTime_SCH 0
scalar SlicingScenario.node[16].nic.mac1609_4 TimesIntoBackoff_SCH 0
scalar SlicingScenario.node[16].nic.mac1609_4 SlotsBackoff_SCH 0
scalar SlicingScenario.node[16].nic.mac1609_4 NumInternalContention_SCH 0
scalar SlicingScenario.node[16].nic.mac1609_4 RemainingPacketsInEDCA_SCH 0
scalar SlicingScenario.node[16].nic.mac1609_4 totalBusyTime_SCH 38.457264
scalar SlicingScenario.node[16].veinsmobility startTime 7
scalar SlicingScenario.node[16].veinsmobility totalTime 96
scalar SlicingScenario.node[16].veinsmobility stopTime 104
scalar SlicingScenario.node[16].veinsmobility minSpeed 2.5500363202626
scalar SlicingScenario.node[16].veinsmobility maxSpeed 11.1099184974
[...]
scalar SlicingScenario.rsu[0].appl meanRxPacketSize_SCH_41_1981 0
scalar SlicingScenario.rsu[0].appl meanTxPacketSize_SCH_41_1981 0
scalar SlicingScenario.rsu[0].appl meanRxThroughput_SCH_41_1981 0
scalar SlicingScenario.rsu[0].appl meanTxThroughput_SCH_41_1981 0
scalar SlicingScenario.rsu[0].appl rxTimeOfService_SCH_41_1981 0
scalar SlicingScenario.rsu[0].appl txTimeOfService_SCH_41_1981 0
scalar SlicingScenario.rsu[0].appl txPackets_SCH_41_1987 0
scalar SlicingScenario.rsu[0].appl rxPackets_SCH_41_1987 0
scalar SlicingScenario.rsu[0].appl rxNeighborPackets_SCH_41_1987 0
scalar SlicingScenario.rsu[0].appl meanDelay_SCH_41_1987 0
scalar SlicingScenario.rsu[0].appl meanJitter_SCH_41_1987 0
scalar SlicingScenario.rsu[0].appl meanRxPacketSize_SCH_41_1987 0
scalar SlicingScenario.rsu[0].appl meanTxPacketSize_SCH_41_1987 0
scalar SlicingScenario.rsu[0].appl meanRxThroughput_SCH_41_1987 0
scalar SlicingScenario.rsu[0].appl meanTxThroughput_SCH_41_1987 0
scalar SlicingScenario.rsu[0].appl rxTimeOfService_SCH_41_1987 0
scalar SlicingScenario.rsu[0].appl txTimeOfService_SCH_41_1987 0
scalar SlicingScenario.rsu[0].appl txPackets_SCH_41_1999 0
scalar SlicingScenario.rsu[0].appl rxPackets_SCH_41_1999 0
scalar SlicingScenario.rsu[0].appl rxNeighborPackets_SCH_41_1999 0
scalar SlicingScenario.rsu[0].appl meanDelay_SCH_41_1999 0
scalar SlicingScenario.rsu[0].appl meanJitter_SCH_41_1999 0
scalar SlicingScenario.rsu[0].appl meanRxPacketSize_SCH_41_1999 0
scalar SlicingScenario.rsu[0].appl meanTxPacketSize_SCH_41_1999 0
scalar SlicingScenario.rsu[0].appl meanRxThroughput_SCH_41_1999 0
scalar SlicingScenario.rsu[0].appl meanTxThroughput_SCH_41_1999 0
scalar SlicingScenario.rsu[0].appl rxTimeOfService_SCH_41_1999 0
scalar SlicingScenario.rsu[0].appl txTimeOfService_SCH_41_1999 0
scalar SlicingScenario.rsu[0].appl txPackets_SCH_41_2005 0
scalar SlicingScenario.rsu[0].appl rxPackets_SCH_41_2005 0
scalar SlicingScenario.rsu[0].appl rxNeighborPackets_SCH_41_2005 0
scalar SlicingScenario.rsu[0].appl meanDelay_SCH_41_2005 0
scalar SlicingScenario.rsu[0].appl meanJitter_SCH_41_2005 0
scalar SlicingScenario.rsu[0].appl meanRxPacketSize_SCH_41_2005 0
scalar SlicingScenario.rsu[0].appl meanTxPacketSize_SCH_41_2005 0
scalar SlicingScenario.rsu[0].appl meanRxThroughput_SCH_41_2005 0
scalar SlicingScenario.rsu[0].appl meanTxThroughput_SCH_41_2005 0
scalar SlicingScenario.rsu[0].appl rxTimeOfService_SCH_41_2005 0
scalar SlicingScenario.rsu[0].appl txTimeOfService_SCH_41_2005 0
scalar SlicingScenario.rsu[0].appl txPackets_SCH_41_2017 0
scalar SlicingScenario.rsu[0].appl rxPackets_SCH_41_2017 0
scalar SlicingScenario.rsu[0].appl rxNeighborPackets_SCH_41_2017 0
scalar SlicingScenario.rsu[0].appl meanDelay_SCH_41_2017 0
scalar SlicingScenario.rsu[0].appl meanJitter_SCH_41_2017 0
scalar SlicingScenario.rsu[0].appl meanRxPacketSize_SCH_41_2017 0
scalar SlicingScenario.rsu[0].appl meanTxPacketSize_SCH_41_2017 0
scalar SlicingScenario.rsu[0].appl meanRxThroughput_SCH_41_2017 0
scalar SlicingScenario.rsu[0].appl meanTxThroughput_SCH_41_2017 0
scalar SlicingScenario.rsu[0].appl rxTimeOfService_SCH_41_2017 0
scalar SlicingScenario.rsu[0].appl txTimeOfService_SCH_41_2017 0
scalar SlicingScenario.rsu[0].appl txPackets_SCH_41_2023 0
scalar SlicingScenario.rsu[0].appl rxPackets_SCH_41_2023 0
scalar SlicingScenario.rsu[0].appl rxNeighborPackets_SCH_41_2023 0
scalar SlicingScenario.rsu[0].appl meanDelay_SCH_41_2023 0
scalar SlicingScenario.rsu[0].appl meanJitter_SCH_41_2023 0
scalar SlicingScenario.rsu[0].appl meanRxPacketSize_SCH_41_2023 0
scalar SlicingScenario.rsu[0].appl meanTxPacketSize_SCH_41_2023 0
scalar SlicingScenario.rsu[0].appl meanRxThroughput_SCH_41_2023 0
scalar SlicingScenario.rsu[0].appl meanTxThroughput_SCH_41_2023 0
scalar SlicingScenario.rsu[0].appl rxTimeOfService_SCH_41_2023 0
scalar SlicingScenario.rsu[0].appl txTimeOfService_SCH_41_2023 0
scalar SlicingScenario.rsu[0].appl txPackets_SCH_41_2029 0
scalar SlicingScenario.rsu[0].appl rxPackets_SCH_41_2029 0
scalar SlicingScenario.rsu[0].appl rxNeighborPackets_SCH_41_2029 0
scalar SlicingScenario.rsu[0].appl meanDelay_SCH_41_2029 0
scalar SlicingScenario.rsu[0].appl meanJitter_SCH_41_2029 0
scalar SlicingScenario.rsu[0].appl meanRxPacketSize_SCH_41_2029 0
scalar SlicingScenario.rsu[0].appl meanTxPacketSize_SCH_41_2029 0
scalar SlicingScenario.rsu[0].appl meanRxThroughput_SCH_41_2029 0
scalar SlicingScenario.rsu[0].appl meanTxThroughput_SCH_41_2029 0
scalar SlicingScenario.rsu[0].appl rxTimeOfService_SCH_41_2029 0
scalar SlicingScenario.rsu[0].appl txTimeOfService_SCH_41_2029 0
scalar SlicingScenario.rsu[0].appl txPackets_SCH_41_2041 0
scalar SlicingScenario.rsu[0].appl rxPackets_SCH_41_2041 0
scalar SlicingScenario.rsu[0].appl rxNeighborPackets_SCH_41_2041 0
scalar SlicingScenario.rsu[0].appl meanDelay_SCH_41_2041 0
scalar SlicingScenario.rsu[0].appl meanJitter_SCH_41_2041 0
scalar SlicingScenario.rsu[0].appl meanRxPacketSize_SCH_41_2041 0
scalar SlicingScenario.rsu[0].appl meanTxPacketSize_SCH_41_2041 0
scalar SlicingScenario.rsu[0].appl meanRxThroughput_SCH_41_2041 0
scalar SlicingScenario.rsu[0].appl meanTxThroughput_SCH_41_2041 0
scalar SlicingScenario.rsu[0].appl rxTimeOfService_SCH_41_2041 0
scalar SlicingScenario.rsu[0].appl txTimeOfService_SCH_41_2041 0
scalar SlicingScenario.rsu[0].appl txPackets_SCH_41_2047 0
scalar SlicingScenario.rsu[0].appl rxPackets_SCH_41_2047 0
scalar SlicingScenario.rsu[0].appl rxNeighborPackets_SCH_41_2047 0
scalar SlicingScenario.rsu[0].appl meanDelay_SCH_41_2047 0
scalar SlicingScenario.rsu[0].appl meanJitter_SCH_41_2047 0
scalar SlicingScenario.rsu[0].appl meanRxPacketSize_SCH_41_2047 0
scalar SlicingScenario.rsu[0].appl meanTxPacketSize_SCH_41_2047 0
scalar SlicingScenario.rsu[0].appl meanRxThroughput_SCH_41_2047 0
scalar SlicingScenario.rsu[0].appl meanTxThroughput_SCH_41_2047 0
scalar SlicingScenario.rsu[0].appl rxTimeOfService_SCH_41_2047 0
scalar SlicingScenario.rsu[0].appl txTimeOfService_SCH_41_2047 0
scalar SlicingScenario.rsu[0].appl txPackets_SCH_41_2053 0
scalar SlicingScenario.rsu[0].appl rxPackets_SCH_41_2053 0
scalar SlicingScenario.rsu[0].appl rxNeighborPackets_SCH_41_2053 0
scalar SlicingScenario.rsu[0].appl meanDelay_SCH_41_2053 0
scalar SlicingScenario.rsu[0].appl meanJitter_SCH_41_2053 0
scalar SlicingScenario.rsu[0].appl meanRxPacketSize_SCH_41_2053 0
scalar SlicingScenario.rsu[0].appl meanTxPacketSize_SCH_41_2053 0
scalar SlicingScenario.rsu[0].appl meanRxThroughput_SCH_41_2053 0
scalar SlicingScenario.rsu[0].appl meanTxThroughput_SCH_41_2053 0
scalar SlicingScenario.rsu[0].appl rxTimeOfService_SCH_41_2053 0
scalar SlicingScenario.rsu[0].appl txTimeOfService_SCH_41_2053 0
scalar SlicingScenario.rsu[0].appl txPackets_SCH_41_2071 0
scalar SlicingScenario.rsu[0].appl rxPackets_SCH_41_2071 0
scalar SlicingScenario.rsu[0].appl rxNeighborPackets_SCH_41_2071 0
scalar SlicingScenario.rsu[0].appl meanDelay_SCH_41_2071 0
scalar SlicingScenario.rsu[0].appl meanJitter_SCH_41_2071 0
scalar SlicingScenario.rsu[0].appl meanRxPacketSize_SCH_41_2071 0
scalar SlicingScenario.rsu[0].appl meanTxPacketSize_SCH_41_2071 0
scalar SlicingScenario.rsu[0].appl meanRxThroughput_SCH_41_2071 0
scalar SlicingScenario.rsu[0].appl meanTxThroughput_SCH_41_2071 0
scalar SlicingScenario.rsu[0].appl rxTimeOfService_SCH_41_2071 0
scalar SlicingScenario.rsu[0].appl txTimeOfService_SCH_41_2071 0
scalar SlicingScenario.rsu[0].appl txPackets_SCH_41_2083 0
scalar SlicingScenario.rsu[0].appl rxPackets_SCH_41_2083 0
scalar SlicingScenario.rsu[0].appl rxNeighborPackets_SCH_41_2083 0
scalar SlicingScenario.rsu[0].appl meanDelay_SCH_41_2083 0
scalar SlicingScenario.rsu[0].appl meanJitter_SCH_41_2083 0
scalar SlicingScenario.rsu[0].appl meanRxPacketSize_SCH_41_2083 0
scalar SlicingScenario.rsu[0].appl meanTxPacketSize_SCH_41_2083 0
scalar SlicingScenario.rsu[0].appl meanRxThroughput_SCH_41_2083 0
scalar SlicingScenario.rsu[0].appl meanTxThroughput_SCH_41_2083 0
scalar SlicingScenario.rsu[0].appl rxTimeOfService_SCH_41_2083 0
scalar SlicingScenario.rsu[0].appl txTimeOfService_SCH_41_2083 0
scalar SlicingScenario.rsu[0].appl txPackets_SCH_41_2113 0
scalar SlicingScenario.rsu[0].appl rxPackets_SCH_41_2113 0
scalar SlicingScenario.rsu[0].appl rxNeighborPackets_SCH_41_2113 0
scalar SlicingScenario.rsu[0].appl meanDelay_SCH_41_2113 0
scalar SlicingScenario.rsu[0].appl meanJitter_SCH_41_2113 0
scalar SlicingScenario.rsu[0].appl meanRxPacketSize_SCH_41_2113 0
scalar SlicingScenario.rsu[0].appl meanTxPacketSize_SCH_41_2113 0
scalar SlicingScenario.rsu[0].appl meanRxThroughput_SCH_41_2113 0
scalar SlicingScenario.rsu[0].appl meanTxThroughput_SCH_41_2113 0
scalar SlicingScenario.rsu[0].appl rxTimeOfService_SCH_41_2113 0
scalar SlicingScenario.rsu[0].appl txTimeOfService_SCH_41_2113 0
scalar SlicingScenario.rsu[0].appl txPackets_SCH_41_2119 0
scalar SlicingScenario.rsu[0].appl rxPackets_SCH_41_2119 0
scalar SlicingScenario.rsu[0].appl rxNeighborPackets_SCH_41_2119 0
scalar SlicingScenario.rsu[0].appl meanDelay_SCH_41_2119 0
scalar SlicingScenario.rsu[0].appl meanJitter_SCH_41_2119 0
scalar SlicingScenario.rsu[0].appl meanRxPacketSize_SCH_41_2119 0
scalar SlicingScenario.rsu[0].appl meanTxPacketSize_SCH_41_2119 0
scalar SlicingScenario.rsu[0].appl meanRxThroughput_SCH_41_2119 0
scalar SlicingScenario.rsu[0].appl meanTxThroughput_SCH_41_2119 0
scalar SlicingScenario.rsu[0].appl rxTimeOfService_SCH_41_2119 0
scalar SlicingScenario.rsu[0].appl txTimeOfService_SCH_41_2119 0
scalar SlicingScenario.rsu[0].appl txPackets_SCH_41_2125 0
scalar SlicingScenario.rsu[0].appl rxPackets_SCH_41_2125 0
scalar SlicingScenario.rsu[0].appl rxNeighborPackets_SCH_41_2125 0
scalar SlicingScenario.rsu[0].appl meanDelay_SCH_41_2125 0
scalar SlicingScenario.rsu[0].appl meanJitter_SCH_41_2125 0
scalar SlicingScenario.rsu[0].appl meanRxPacketSize_SCH_41_2125 0
scalar SlicingScenario.rsu[0].appl meanTxPacketSize_SCH_41_2125 0
scalar SlicingScenario.rsu[0].appl meanRxThroughput_SCH_41_2125 0
scalar SlicingScenario.rsu[0].appl meanTxThroughput_SCH_41_2125 0
scalar SlicingScenario.rsu[0].appl rxTimeOfService_SCH_41_2125 0
scalar SlicingScenario.rsu[0].appl txTimeOfService_SCH_41_2125 0
scalar SlicingScenario.rsu[0].appl txPackets_SCH_41_2131 0
scalar SlicingScenario.rsu[0].appl rxPackets_SCH_41_2131 0
scalar SlicingScenario.rsu[0].appl rxNeighborPackets_SCH_41_2131 0
scalar SlicingScenario.rsu[0].appl meanDelay_SCH_41_2131 0
scalar SlicingScenario.rsu[0].appl meanJitter_SCH_41_2131 0
scalar SlicingScenario.rsu[0].appl meanRxPacketSize_SCH_41_2131 0
scalar SlicingScenario.rsu[0].appl meanTxPacketSize_SCH_41_2131 0
scalar SlicingScenario.rsu[0].appl meanRxThroughput_SCH_41_2131 0
scalar SlicingScenario.rsu[0].appl meanTxThroughput_SCH_41_2131 0
scalar SlicingScenario.rsu[0].appl rxTimeOfService_SCH_41_2131 0
scalar SlicingScenario.rsu[0].appl txTimeOfService_SCH_41_2131 0
scalar SlicingScenario.rsu[0].appl txPackets_SCH_41_2137 0
scalar SlicingScenario.rsu[0].appl rxPackets_SCH_41_2137 0
scalar SlicingScenario.rsu[0].appl rxNeighborPackets_SCH_41_2137 0
scalar SlicingScenario.rsu[0].appl meanDelay_SCH_41_2137 0
scalar SlicingScenario.rsu[0].appl meanJitter_SCH_41_2137 0
scalar SlicingScenario.rsu[0].appl meanRxPacketSize_SCH_41_2137 0
scalar SlicingScenario.rsu[0].appl meanTxPacketSize_SCH_41_2137 0
scalar SlicingScenario.rsu[0].appl meanRxThroughput_SCH_41_2137 0
scalar SlicingScenario.rsu[0].appl meanTxThroughput_SCH_41_2137 0
scalar SlicingScenario.rsu[0].appl rxTimeOfService_SCH_41_2137 0
scalar SlicingScenario.rsu[0].appl txTimeOfService_SCH_41_2137 0
scalar SlicingScenario.rsu[0].appl txPackets_SCH_41_2143 0
scalar SlicingScenario.rsu[0].appl rxPackets_SCH_41_2143 0
scalar SlicingScenario.rsu[0].appl rxNeighborPackets_SCH_41_2143 0
scalar SlicingScenario.rsu[0].appl meanDelay_SCH_41_2143 0
scalar SlicingScenario.rsu[0].appl meanJitter_SCH_41_2143 0
scalar SlicingScenario.rsu[0].appl meanRxPacketSize_SCH_41_2143 0
scalar SlicingScenario.rsu[0].appl meanTxPacketSize_SCH_41_2143 0
scalar SlicingScenario.rsu[0].appl meanRxThroughput_SCH_41_2143 0
scalar SlicingScenario.rsu[0].appl meanTxThroughput_SCH_41_2143 0
scalar SlicingScenario.rsu[0].appl rxTimeOfService_SCH_41_2143 0
scalar SlicingScenario.rsu[0].appl txTimeOfService_SCH_41_2143 0
scalar SlicingScenario.rsu[0].appl txPackets_SCH_41_2149 0
scalar SlicingScenario.rsu[0].appl rxPackets_SCH_41_2149 0
scalar SlicingScenario.rsu[0].appl rxNeighborPackets_SCH_41_2149 0
scalar SlicingScenario.rsu[0].appl meanDelay_SCH_41_2149 0
scalar SlicingScenario.rsu[0].appl meanJitter_SCH_41_2149 0
scalar SlicingScenario.rsu[0].appl meanRxPacketSize_SCH_41_2149 0
scalar SlicingScenario.rsu[0].appl meanTxPacketSize_SCH_41_2149 0
scalar SlicingScenario.rsu[0].appl meanRxThroughput_SCH_41_2149 0
scalar SlicingScenario.rsu[0].appl meanTxThroughput_SCH_41_2149 0
scalar SlicingScenario.rsu[0].appl rxTimeOfService_SCH_41_2149 0
scalar SlicingScenario.rsu[0].appl txTimeOfService_SCH_41_2149 0
scalar SlicingScenario.rsu[0].appl txPackets_SCH_41_2155 0
scalar SlicingScenario.rsu[0].appl rxPackets_SCH_41_2155 0
scalar SlicingScenario.rsu[0].appl rxNeighborPackets_SCH_41_2155 0
scalar SlicingScenario.rsu[0].appl meanDelay_SCH_41_2155 0
scalar SlicingScenario.rsu[0].appl meanJitter_SCH_41_2155 0
scalar SlicingScenario.rsu[0].appl meanRxPacketSize_SCH_41_2155 0
scalar SlicingScenario.rsu[0].appl meanTxPacketSize_SCH_41_2155 0
scalar SlicingScenario.rsu[0].appl meanRxThroughput_SCH_41_2155 0
scalar SlicingScenario.rsu[0].appl meanTxThroughput_SCH_41_2155 0
scalar SlicingScenario.rsu[0].appl rxTimeOfService_SCH_41_2155 0
scalar SlicingScenario.rsu[0].appl txTimeOfService_SCH_41_2155 0
scalar SlicingScenario.rsu[0].appl txPackets_SCH_41_2161 0
scalar SlicingScenario.rsu[0].appl rxPackets_SCH_41_2161 0
scalar SlicingScenario.rsu[0].appl rxNeighborPackets_SCH_41_2161 0
scalar SlicingScenario.rsu[0].appl meanDelay_SCH_41_2161 0
scalar SlicingScenario.rsu[0].appl meanJitter_SCH_41_2161 0
scalar SlicingScenario.rsu[0].appl meanRxPacketSize_SCH_41_2161 0
scalar SlicingScenario.rsu[0].appl meanTxPacketSize_SCH_41_2161 0
scalar SlicingScenario.rsu[0].appl meanRxThroughput_SCH_41_2161 0
scalar SlicingScenario.rsu[0].appl meanTxThroughput_SCH_41_2161 0
scalar SlicingScenario.rsu[0].appl rxTimeOfService_SCH_41_2161 0
scalar SlicingScenario.rsu[0].appl txTimeOfService_SCH_41_2161 0
scalar SlicingScenario.rsu[0].appl txPackets_SCH_41_2167 0
scalar SlicingScenario.rsu[0].appl rxPackets_SCH_41_2167 0
scalar SlicingScenario.rsu[0].appl rxNeighborPackets_SCH_41_2167 0
scalar SlicingScenario.rsu[0].appl meanDelay_SCH_41_2167 0
scalar SlicingScenario.rsu[0].appl meanJitter_SCH_41_2167 0
scalar SlicingScenario.rsu[0].appl meanRxPacketSize_SCH_41_2167 0
scalar SlicingScenario.rsu[0].appl meanTxPacketSize_SCH_41_2167 0
scalar SlicingScenario.rsu[0].appl meanRxThroughput_SCH_41_2167 0
scalar SlicingScenario.rsu[0].appl meanTxThroughput_SCH_41_2167 0
scalar SlicingScenario.rsu[0].appl rxTimeOfService_SCH_41_2167 0
scalar SlicingScenario.rsu[0].appl txTimeOfService_SCH_41_2167 0
scalar SlicingScenario.rsu[0].appl txPackets_SCH_41_2179 0
scalar SlicingScenario.rsu[0].appl rxPackets_SCH_41_2179 0
scalar SlicingScenario.rsu[0].appl rxNeighborPackets_SCH_41_2179 0
scalar SlicingScenario.rsu[0].appl meanDelay_SCH_41_2179 0
scalar SlicingScenario.rsu[0].appl meanJitter_SCH_41_2179 0
scalar SlicingScenario.rsu[0].appl meanRxPacketSize_SCH_41_2179 0
scalar SlicingScenario.rsu[0].appl meanTxPacketSize_SCH_41_2179 0
scalar SlicingScenario.rsu[0].appl meanRxThroughput_SCH_41_2179 0
scalar SlicingScenario.rsu[0].appl meanTxThroughput_SCH_41_2179 0
scalar SlicingScenario.rsu[0].appl rxTimeOfService_SCH_41_2179 0
scalar SlicingScenario.rsu[0].appl txTimeOfService_SCH_41_2179 0
scalar SlicingScenario.rsu[0].appl txPackets_SCH_41_2197 0
scalar SlicingScenario.rsu[0].appl rxPackets_SCH_41_2197 0
scalar SlicingScenario.rsu[0].appl rxNeighborPackets_SCH_41_2197 0
scalar SlicingScenario.rsu[0].appl meanDelay_SCH_41_2197 0
scalar SlicingScenario.rsu[0].appl meanJitter_SCH_41_2197 0
scalar SlicingScenario.rsu[0].appl meanRxPacketSize_SCH_41_2197 0
scalar SlicingScenario.rsu[0].appl meanTxPacketSize_SCH_41_2197 0
scalar SlicingScenario.rsu[0].appl meanRxThroughput_SCH_41_2197 0
scalar SlicingScenario.rsu[0].appl meanTxThroughput_SCH_41_2197 0
scalar SlicingScenario.rsu[0].appl rxTimeOfService_SCH_41_2197 0
scalar SlicingScenario.rsu[0].appl txTimeOfService_SCH_41_2197 0
scalar SlicingScenario.rsu[0].appl txPackets_SCH_41_2215 0
scalar SlicingScenario.rsu[0].appl rxPackets_SCH_41_2215 0
scalar SlicingScenario.rsu[0].appl rxNeighborPackets_SCH_41_2215 0
scalar SlicingScenario.rsu[0].appl meanDelay_SCH_41_2215 0
scalar SlicingScenario.rsu[0].appl meanJitter_SCH_41_2215 0
scalar SlicingScenario.rsu[0].appl meanRxPacketSize_SCH_41_2215 0
scalar SlicingScenario.rsu[0].appl meanTxPacketSize_SCH_41_2215 0
scalar SlicingScenario.rsu[0].appl meanRxThroughput_SCH_41_2215 0
scalar SlicingScenario.rsu[0].appl meanTxThroughput_SCH_41_2215 0
scalar SlicingScenario.rsu[0].appl rxTimeOfService_SCH_41_2215 0
scalar SlicingScenario.rsu[0].appl txTimeOfService_SCH_41_2215 0
scalar SlicingScenario.rsu[0].appl txPackets_SCH_41_2221 0
scalar SlicingScenario.rsu[0].appl rxPackets_SCH_41_2221 0
scalar SlicingScenario.rsu[0].appl rxNeighborPackets_SCH_41_2221 0
scalar SlicingScenario.rsu[0].appl meanDelay_SCH_41_2221 0
scalar SlicingScenario.rsu[0].appl meanJitter_SCH_41_2221 0
scalar SlicingScenario.rsu[0].appl meanRxPacketSize_SCH_41_2221 0
scalar SlicingScenario.rsu[0].appl meanTxPacketSize_SCH_41_2221 0
scalar SlicingScenario.rsu[0].appl meanRxThroughput_SCH_41_2221 0
scalar SlicingScenario.rsu[0].appl meanTxThroughput_SCH_41_2221 0
scalar SlicingScenario.rsu[0].appl rxTimeOfService_SCH_41_2221 0
scalar SlicingScenario.rsu[0].appl txTimeOfService_SCH_41_2221 0
scalar SlicingScenario.rsu[0].nic.phy80211p busyTime 0
scalar SlicingScenario.rsu[0].nic.phy80211p ncollisions 0
scalar SlicingScenario.rsu[0].nic.phy80211p UnderSensitivityPackets 0
scalar SlicingScenario.rsu[0].nic.mac1609_4 ReceivedUnicastPackets_CCH 0
scalar SlicingScenario.rsu[0].nic.mac1609_4 ReceivedBroadcasts_CCH 0
scalar SlicingScenario.rsu[0].nic.mac1609_4 SentPackets_CCH 0
scalar SlicingScenario.rsu[0].nic.mac1609_4 SentAcknowledgements_CCH 0
scalar SlicingScenario.rsu[0].nic.mac1609_4 SNIRLostPackets_CCH 0
scalar SlicingScenario.rsu[0].nic.mac1609_4 RXTXLostPackets_CCH 0
scalar SlicingScenario.rsu[0].nic.mac1609_4 TotalLostPackets_CCH 0
scalar SlicingScenario.rsu[0].nic.mac1609_4 DroppedPacketsInMac_CCH 0
scalar SlicingScenario.rsu[0].nic.mac1609_4 TooLittleTime_CCH 0
scalar SlicingScenario.rsu[0].nic.mac1609_4 TimesIntoBackoff_CCH 0
scalar SlicingScenario.rsu[0].nic.mac1609_4 SlotsBackoff_CCH 0
scalar SlicingScenario.rsu[0].nic.mac1609_4 NumInternalContention_CCH 0
scalar SlicingScenario.rsu[0].nic.mac1609_4 RemainingPacketsInEDCA_CCH 0
scalar SlicingScenario.rsu[0].nic.mac1609_4 totalBusyTime_CCH 0
scalar SlicingScenario.rsu[0].nic.mac1609_4 ReceivedUnicastPackets_SCH 0
scalar SlicingScenario.rsu[0].nic.mac1609_4 ReceivedBroadcasts_SCH 0
scalar SlicingScenario.rsu[0].nic.mac1609_4 SentPackets_SCH 62728
scalar SlicingScenario.rsu[0].nic.mac1609_4 SentAcknowledgements_SCH 0
scalar SlicingScenario.rsu[0].nic.mac1609_4 SNIRLostPackets_SCH 0
scalar SlicingScenario.rsu[0].nic.mac1609_4 RXTXLostPackets_SCH 0
scalar SlicingScenario.rsu[0].nic.mac1609_4 TotalLostPackets_SCH 0
scalar SlicingScenario.rsu[0].nic.mac1609_4 DroppedPacketsInMac_SCH 0
scalar SlicingScenario.rsu[0].nic.mac1609_4 TooLittleTime_SCH 44608
scalar SlicingScenario.rsu[0].nic.mac1609_4 TimesIntoBackoff_SCH 65112
scalar SlicingScenario.rsu[0].nic.mac1609_4 SlotsBackoff_SCH 219552
scalar SlicingScenario.rsu[0].nic.mac1609_4 NumInternalContention_SCH 0
scalar SlicingScenario.rsu[0].nic.mac1609_4 RemainingPacketsInEDCA_SCH 575095
scalar SlicingScenario.rsu[0].nic.mac1609_4 totalBusyTime_SCH 124.181512

