version 2
run General-8-20190316-16:43:27-7117
attr configname General
attr datetime 20190316-16:43:27
attr experiment General
attr inifile omnetpp.ini
attr iterationvars "$vehicles=0.1, $msgSizeA=1500B, $serviceMsgInterval=0.04s, $msgSizeB=10000B"
attr iterationvarsf vehicles=0.1,msgSizeA=1500B,serviceMsgInterval=0.04s,msgSizeB=10000B-
attr measurement "$vehicles=0.1, $msgSizeA=1500B, $serviceMsgInterval=0.04s, $msgSizeB=10000B"
attr network com.liborio.slicing.SlicingScenario
attr processid 7117
attr repetition 8
attr replication #8
attr resultdir results
attr runnumber 8
attr seedset 8
itervar msgSizeA 1500B
itervar msgSizeB 10000B
itervar serviceMsgInterval 0.04s
itervar vehicles 0.1
param **.debug false
param **.coreDebug false
param *.playgroundSizeX 1200m
param *.playgroundSizeY 1200m
param *.playgroundSizeZ 50m
param *.annotations.draw true
param *.manager.updateInterval 1s
param *.manager.host "\"localhost\""
param *.manager.port 9999
param *.manager.autoShutdown true
param *.manager.launchConfig "xmldoc(\"highway-\"+string(0.1)+\".launchd.xml\")"
param *.connectionManager.sendDirect true
param *.connectionManager.maxInterfDist 2600m
param *.connectionManager.drawMaxIntfDist false
param *.rsu[*].applType "\"RSUApp\""
param *.rsu[*].appl.headerLength "80 bit"
param *.rsu[*].appl.sendBeacons false
param *.rsu[*].appl.dataOnSch true
param *.rsu[*].appl.beaconInterval 1s
param *.rsu[*].appl.beaconUserPriority 7
param *.rsu[*].appl.dataUserPriority 5
param *.rsu[*].appl.entMsgADataLengthBytes 1500B
param *.rsu[*].appl.entMsgAUserPriority 4
param *.rsu[*].appl.entMsgAInterval 0.04s
param *.rsu[*].appl.entMsgBDataLengthBytes 10000B
param *.rsu[*].appl.entMsgBUserPriority 4
param *.rsu[*].appl.entMsgBInterval 0.04s
param *.rsu[*].nic.mac1609_4.useServiceChannel true
param *.rsu[*].nic.mac1609_4.txPower 20mW
param *.rsu[*].nic.mac1609_4.bitrate 6Mbps
param *.rsu[*].nic.phy80211p.sensitivity -90.00dBm
param *.rsu[0].mobility.x 515.0
param *.rsu[0].mobility.y 25.0
param *.rsu[0].mobility.z 3
param *.node[*].applType "\"VehApp\""
param *.node[*].appl.headerLength "80 bit"
param *.node[*].appl.sendBeacons false
param *.node[*].appl.dataOnSch true
param *.node[*].appl.beaconInterval 1s
param *.node[*].appl.wsaInterval 1s
param *.node[*].appl.entMsgADataLengthBits 1500B
param *.node[*].appl.entMsgAUserPriority 4
param *.node[*].appl.entMsgAInterval 0.04s
param *.node[*].appl.entMsgBDataLengthBits 10000B
param *.node[*].appl.entMsgBUserPriority 4
param *.node[*].appl.entMsgBInterval 0.04s
param *.node[*].nic.mac1609_4.useServiceChannel true
param *.node[*].nic.mac1609_4.txPower 20mW
param *.node[*].nic.mac1609_4.bitrate 6Mbps
param *.node[*].nic.phy80211p.sensitivity -90.00dBm
param *.node[*].veinsmobilityType.debug true
param *.node[*].veinsmobility.x 0
param *.node[*].veinsmobility.y 0
param *.node[*].veinsmobility.z 1.895
param *.**.nic.phy80211p.useThermalNoise true
param *.**.nic.phy80211p.thermalNoise -110dBm
param *.**.nic.phy80211p.decider "xmldoc(\"config.xml\")"
param *.**.nic.phy80211p.analogueModels "xmldoc(\"config.xml\")"
param *.**.nic.phy80211p.usePropagationDelay true
param *.**.nic.phy80211p.antenna "xmldoc(\"antenna.xml\", \"/root/Antenna[@id='monopole']\")"
param *.**.nic.phy80211p.collectCollisionStatistics true
param *.**.nic.phy80211p.allowTxDuringRx false

scalar SlicingScenario.node[0].appl txPackets_CCH_13 0
scalar SlicingScenario.node[0].appl rxPackets_CCH_13 0
scalar SlicingScenario.node[0].appl rxNeighborPackets_CCH_13 0
scalar SlicingScenario.node[0].appl meanDelay_CCH_13 0
scalar SlicingScenario.node[0].appl meanJitter_CCH_13 0
scalar SlicingScenario.node[0].appl meanRxPacketSize_CCH_13 0
scalar SlicingScenario.node[0].appl meanTxPacketSize_CCH_13 0
scalar SlicingScenario.node[0].appl meanRxThroughput_CCH_13 0
scalar SlicingScenario.node[0].appl meanTxThroughput_CCH_13 0
scalar SlicingScenario.node[0].appl rxTimeOfService_CCH_13 0
scalar SlicingScenario.node[0].appl txTimeOfService_CCH_13 0
scalar SlicingScenario.node[0].appl txPackets_SCH_41_13 0
scalar SlicingScenario.node[0].appl rxPackets_SCH_41_13 2177
scalar SlicingScenario.node[0].appl rxNeighborPackets_SCH_41_13 13375
scalar SlicingScenario.node[0].appl meanDelay_SCH_41_13 27.544863211494
scalar SlicingScenario.node[0].appl meanJitter_SCH_41_13 0.033670712461
scalar SlicingScenario.node[0].appl meanRxPacketSize_SCH_41_13 1438
scalar SlicingScenario.node[0].appl meanTxPacketSize_SCH_41_13 0
scalar SlicingScenario.node[0].appl meanRxThroughput_SCH_41_13 293705.64049639
scalar SlicingScenario.node[0].appl meanTxThroughput_SCH_41_13 0
scalar SlicingScenario.node[0].appl rxTimeOfService_SCH_41_13 85.303639241166
scalar SlicingScenario.node[0].appl txTimeOfService_SCH_41_13 0
scalar SlicingScenario.node[0].nic.phy80211p busyTime 0.36669391304352
scalar SlicingScenario.node[0].nic.phy80211p ncollisions 0
scalar SlicingScenario.node[0].nic.phy80211p UnderSensitivityPackets 1293
scalar SlicingScenario.node[0].nic.mac1609_4 ReceivedUnicastPackets_CCH 0
scalar SlicingScenario.node[0].nic.mac1609_4 ReceivedBroadcasts_CCH 27
scalar SlicingScenario.node[0].nic.mac1609_4 SentPackets_CCH 0
scalar SlicingScenario.node[0].nic.mac1609_4 SentAcknowledgements_CCH 0
scalar SlicingScenario.node[0].nic.mac1609_4 SNIRLostPackets_CCH 0
scalar SlicingScenario.node[0].nic.mac1609_4 RXTXLostPackets_CCH 0
scalar SlicingScenario.node[0].nic.mac1609_4 TotalLostPackets_CCH 0
scalar SlicingScenario.node[0].nic.mac1609_4 DroppedPacketsInMac_CCH 0
scalar SlicingScenario.node[0].nic.mac1609_4 TooLittleTime_CCH 0
scalar SlicingScenario.node[0].nic.mac1609_4 TimesIntoBackoff_CCH 0
scalar SlicingScenario.node[0].nic.mac1609_4 SlotsBackoff_CCH 0
scalar SlicingScenario.node[0].nic.mac1609_4 NumInternalContention_CCH 0
scalar SlicingScenario.node[0].nic.mac1609_4 RemainingPacketsInEDCA_CCH 0
scalar SlicingScenario.node[0].nic.mac1609_4 totalBusyTime_CCH 0.107211830494
scalar SlicingScenario.node[0].nic.mac1609_4 ReceivedUnicastPackets_SCH 0
scalar SlicingScenario.node[0].nic.mac1609_4 ReceivedBroadcasts_SCH 17041
scalar SlicingScenario.node[0].nic.mac1609_4 SentPackets_SCH 0
scalar SlicingScenario.node[0].nic.mac1609_4 SentAcknowledgements_SCH 0
scalar SlicingScenario.node[0].nic.mac1609_4 SNIRLostPackets_SCH 0
scalar SlicingScenario.node[0].nic.mac1609_4 RXTXLostPackets_SCH 0
scalar SlicingScenario.node[0].nic.mac1609_4 TotalLostPackets_SCH 0
scalar SlicingScenario.node[0].nic.mac1609_4 DroppedPacketsInMac_SCH 0
scalar SlicingScenario.node[0].nic.mac1609_4 TooLittleTime_SCH 0
scalar SlicingScenario.node[0].nic.mac1609_4 TimesIntoBackoff_SCH 0
scalar SlicingScenario.node[0].nic.mac1609_4 SlotsBackoff_SCH 0
scalar SlicingScenario.node[0].nic.mac1609_4 NumInternalContention_SCH 0
scalar SlicingScenario.node[0].nic.mac1609_4 RemainingPacketsInEDCA_SCH 0
scalar SlicingScenario.node[0].nic.mac1609_4 totalBusyTime_SCH 33.682128
scalar SlicingScenario.node[0].veinsmobility startTime 1
scalar SlicingScenario.node[0].veinsmobility totalTime 91
scalar SlicingScenario.node[0].veinsmobility stopTime 93
scalar SlicingScenario.node[0].veinsmobility minSpeed 10.614523210577
scalar SlicingScenario.node[0].veinsmobility maxSpeed 11.104748019613
scalar SlicingScenario.node[0].veinsmobility totalDistance 980.19586514628
scalar SlicingScenario.node[0].veinsmobility totalCO2Emission 158.79267746794
scalar SlicingScenario.node[3].appl txPackets_CCH_31 0
scalar SlicingScenario.node[3].appl rxPackets_CCH_31 0
scalar SlicingScenario.node[3].appl rxNeighborPackets_CCH_31 0
scalar SlicingScenario.node[3].appl meanDelay_CCH_31 0
scalar SlicingScenario.node[3].appl meanJitter_CCH_31 0
scalar SlicingScenario.node[3].appl meanRxPacketSize_CCH_31 0
scalar SlicingScenario.node[3].appl meanTxPacketSize_CCH_31 0
scalar SlicingScenario.node[3].appl meanRxThroughput_CCH_31 0
scalar SlicingScenario.node[3].appl meanTxThroughput_CCH_31 0
scalar SlicingScenario.node[3].appl rxTimeOfService_CCH_31 0
scalar SlicingScenario.node[3].appl txTimeOfService_CCH_31 0
scalar SlicingScenario.node[3].appl txPackets_SCH_40_31 0
scalar SlicingScenario.node[3].appl rxPackets_SCH_40_31 310
scalar SlicingScenario.node[3].appl rxNeighborPackets_SCH_40_31 1185
scalar SlicingScenario.node[3].appl meanDelay_SCH_40_31 27.214854246189
scalar SlicingScenario.node[3].appl meanJitter_SCH_40_31 0.234638081554
scalar SlicingScenario.node[3].appl meanRxPacketSize_SCH_40_31 1510
scalar SlicingScenario.node[3].appl meanTxPacketSize_SCH_40_31 0
scalar SlicingScenario.node[3].appl meanRxThroughput_SCH_40_31 43801.290847912
scalar SlicingScenario.node[3].appl meanTxThroughput_SCH_40_31 0
scalar SlicingScenario.node[3].appl rxTimeOfService_SCH_40_31 85.495197230665
scalar SlicingScenario.node[3].appl txTimeOfService_SCH_40_31 0
scalar SlicingScenario.node[3].nic.phy80211p busyTime 0.36205252173918
scalar SlicingScenario.node[3].nic.phy80211p ncollisions 0
scalar SlicingScenario.node[3].nic.phy80211p UnderSensitivityPackets 1509
scalar SlicingScenario.node[3].nic.mac1609_4 ReceivedUnicastPackets_CCH 0
scalar SlicingScenario.node[3].nic.mac1609_4 ReceivedBroadcasts_CCH 0
scalar SlicingScenario.node[3].nic.mac1609_4 SentPackets_CCH 0
scalar SlicingScenario.node[3].nic.mac1609_4 SentAcknowledgements_CCH 0
scalar SlicingScenario.node[3].nic.mac1609_4 SNIRLostPackets_CCH 0
scalar SlicingScenario.node[3].nic.mac1609_4 RXTXLostPackets_CCH 0
scalar SlicingScenario.node[3].nic.mac1609_4 TotalLostPackets_CCH 0
scalar SlicingScenario.node[3].nic.mac1609_4 DroppedPacketsInMac_CCH 0
scalar SlicingScenario.node[3].nic.mac1609_4 TooLittleTime_CCH 0
scalar SlicingScenario.node[3].nic.mac1609_4 TimesIntoBackoff_CCH 0
scalar SlicingScenario.node[3].nic.mac1609_4 SlotsBackoff_CCH 0
scalar SlicingScenario.node[3].nic.mac1609_4 NumInternalContention_CCH 0
scalar SlicingScenario.node[3].nic.mac1609_4 RemainingPacketsInEDCA_CCH 0
scalar SlicingScenario.node[3].nic.mac1609_4 totalBusyTime_CCH 0
scalar SlicingScenario.node[3].nic.mac1609_4 ReceivedUnicastPackets_SCH 0
scalar SlicingScenario.node[3].nic.mac1609_4 ReceivedBroadcasts_SCH 16852
scalar SlicingScenario.node[3].nic.mac1609_4 SentPackets_SCH 0
scalar SlicingScenario.node[3].nic.mac1609_4 SentAcknowledgements_SCH 0
scalar SlicingScenario.node[3].nic.mac1609_4 SNIRLostPackets_SCH 0
scalar SlicingScenario.node[3].nic.mac1609_4 RXTXLostPackets_SCH 0
scalar SlicingScenario.node[3].nic.mac1609_4 TotalLostPackets_SCH 0
scalar SlicingScenario.node[3].nic.mac1609_4 DroppedPacketsInMac_SCH 0
scalar SlicingScenario.node[3].nic.mac1609_4 TooLittleTime_SCH 0
scalar SlicingScenario.node[3].nic.mac1609_4 TimesIntoBackoff_SCH 0
scalar SlicingScenario.node[3].nic.mac1609_4 SlotsBackoff_SCH 0
scalar SlicingScenario.node[3].nic.mac1609_4 NumInternalContention_SCH 0
scalar SlicingScenario.node[3].nic.mac1609_4 RemainingPacketsInEDCA_SCH 0
scalar SlicingScenario.node[3].nic.mac1609_4 totalBusyTime_SCH 33.308832
scalar SlicingScenario.node[3].veinsmobility startTime 1
scalar SlicingScenario.node[3].veinsmobility totalTime 91
scalar SlicingScenario.node[3].veinsmobility stopTime 93
scalar SlicingScenario.node[3].veinsmobility minSpeed 10.613409217461
scalar SlicingScenario.node[3].veinsmobility maxSpeed 11.108725340352
scalar SlicingScenario.node[3].veinsmobility totalDistance 977.31823329287
scalar SlicingScenario.node[3].veinsmobility totalCO2Emission 158.67343344154
scalar SlicingScenario.node[2].appl txPackets_CCH_25 0
scalar SlicingScenario.node[2].appl rxPackets_CCH_25 0
scalar SlicingScenario.node[2].appl rxNeighborPackets_CCH_25 0
scalar SlicingScenario.node[2].appl meanDelay_CCH_25 0
scalar SlicingScenario.node[2].appl meanJitter_CCH_25 0
scalar SlicingScenario.node[2].appl meanRxPacketSize_CCH_25 0
scalar SlicingScenario.node[2].appl meanTxPacketSize_CCH_25 0
scalar SlicingScenario.node[2].appl meanRxThroughput_CCH_25 0
scalar SlicingScenario.node[2].appl meanTxThroughput_CCH_25 0
scalar SlicingScenario.node[2].appl rxTimeOfService_CCH_25 0
scalar SlicingScenario.node[2].appl txTimeOfService_CCH_25 0
scalar SlicingScenario.node[2].appl txPackets_SCH_40_25 0
scalar SlicingScenario.node[2].appl rxPackets_SCH_40_25 314
scalar SlicingScenario.node[2].appl rxNeighborPackets_SCH_40_25 1202
scalar SlicingScenario.node[2].appl meanDelay_SCH_40_25 27.363320509177
scalar SlicingScenario.node[2].appl meanJitter_SCH_40_25 0.231680772024
scalar SlicingScenario.node[2].appl meanRxPacketSize_SCH_40_25 1510
scalar SlicingScenario.node[2].appl meanTxPacketSize_SCH_40_25 0
scalar SlicingScenario.node[2].appl meanRxThroughput_SCH_40_25 44381.206776146
scalar SlicingScenario.node[2].appl meanTxThroughput_SCH_40_25 0
scalar SlicingScenario.node[2].appl rxTimeOfService_SCH_40_25 85.466806234722
scalar SlicingScenario.node[2].appl txTimeOfService_SCH_40_25 0
scalar SlicingScenario.node[2].nic.phy80211p busyTime 0.36669391304352
scalar SlicingScenario.node[2].nic.phy80211p ncollisions 0
scalar SlicingScenario.node[2].nic.phy80211p UnderSensitivityPackets 1293
scalar SlicingScenario.node[2].nic.mac1609_4 ReceivedUnicastPackets_CCH 0
scalar SlicingScenario.node[2].nic.mac1609_4 ReceivedBroadcasts_CCH 226
scalar SlicingScenario.node[2].nic.mac1609_4 SentPackets_CCH 0
scalar SlicingScenario.node[2].nic.mac1609_4 SentAcknowledgements_CCH 0
scalar SlicingScenario.node[2].nic.mac1609_4 SNIRLostPackets_CCH 0
scalar SlicingScenario.node[2].nic.mac1609_4 RXTXLostPackets_CCH 0
scalar SlicingScenario.node[2].nic.mac1609_4 TotalLostPackets_CCH 0
scalar SlicingScenario.node[2].nic.mac1609_4 DroppedPacketsInMac_CCH 0
scalar SlicingScenario.node[2].nic.mac1609_4 TooLittleTime_CCH 0
scalar SlicingScenario.node[2].nic.mac1609_4 TimesIntoBackoff_CCH 0
scalar SlicingScenario.node[2].nic.mac1609_4 SlotsBackoff_CCH 0
scalar SlicingScenario.node[2].nic.mac1609_4 NumInternalContention_CCH 0
scalar SlicingScenario.node[2].nic.mac1609_4 RemainingPacketsInEDCA_CCH 0
scalar SlicingScenario.node[2].nic.mac1609_4 totalBusyTime_CCH 0.875326084337
scalar SlicingScenario.node[2].nic.mac1609_4 ReceivedUnicastPackets_SCH 0
scalar SlicingScenario.node[2].nic.mac1609_4 ReceivedBroadcasts_SCH 16842
scalar SlicingScenario.node[2].nic.mac1609_4 SentPackets_SCH 0
scalar SlicingScenario.node[2].nic.mac1609_4 SentAcknowledgements_SCH 0
scalar SlicingScenario.node[2].nic.mac1609_4 SNIRLostPackets_SCH 0
scalar SlicingScenario.node[2].nic.mac1609_4 RXTXLostPackets_SCH 0
scalar SlicingScenario.node[2].nic.mac1609_4 TotalLostPackets_SCH 0
scalar SlicingScenario.node[2].nic.mac1609_4 DroppedPacketsInMac_SCH 0
scalar SlicingScenario.node[2].nic.mac1609_4 TooLittleTime_SCH 0
scalar SlicingScenario.node[2].nic.mac1609_4 TimesIntoBackoff_SCH 0
scalar SlicingScenario.node[2].nic.mac1609_4 SlotsBackoff_SCH 0
scalar SlicingScenario.node[2].nic.mac1609_4 NumInternalContention_SCH 0
scalar SlicingScenario.node[2].nic.mac1609_4 RemainingPacketsInEDCA_SCH 0
scalar SlicingScenario.node[2].nic.mac1609_4 totalBusyTime_SCH 33.289536
scalar SlicingScenario.node[2].veinsmobility startTime 1
scalar SlicingScenario.node[2].veinsmobility totalTime 91
scalar SlicingScenario.node[2].veinsmobility stopTime 93
scalar SlicingScenario.node[2].veinsmobility minSpeed 10.61581246824
scalar SlicingScenario.node[2].veinsmobility maxSpeed 11.103458874407
scalar SlicingScenario.node[2].veinsmobility totalDistance 979.12516943568
scalar SlicingScenario.node[2].veinsmobility totalCO2Emission 158.22480923289
scalar SlicingScenario.node[1].appl txPackets_CCH_19 0
scalar SlicingScenario.node[1].appl rxPackets_CCH_19 0
scalar SlicingScenario.node[1].appl rxNeighborPackets_CCH_19 0
scalar SlicingScenario.node[1].appl meanDelay_CCH_19 0
scalar SlicingScenario.node[1].appl meanJitter_CCH_19 0
scalar SlicingScenario.node[1].appl meanRxPacketSize_CCH_19 0
scalar SlicingScenario.node[1].appl meanTxPacketSize_CCH_19 0
scalar SlicingScenario.node[1].appl meanRxThroughput_CCH_19 0
scalar SlicingScenario.node[1].appl meanTxThroughput_CCH_19 0
scalar SlicingScenario.node[1].appl rxTimeOfService_CCH_19 0
scalar SlicingScenario.node[1].appl txTimeOfService_CCH_19 0
scalar SlicingScenario.node[1].appl txPackets_SCH_41_19 0
scalar SlicingScenario.node[1].appl rxPackets_SCH_41_19 2111
scalar SlicingScenario.node[1].appl rxNeighborPackets_SCH_41_19 13246
scalar SlicingScenario.node[1].appl meanDelay_SCH_41_19 27.980488339037
scalar SlicingScenario.node[1].appl meanJitter_SCH_41_19 0.034583619785
scalar SlicingScenario.node[1].appl meanRxPacketSize_SCH_41_19 1438
scalar SlicingScenario.node[1].appl meanTxPacketSize_SCH_41_19 0
scalar SlicingScenario.node[1].appl meanRxThroughput_SCH_41_19 285519.04274838
scalar SlicingScenario.node[1].appl meanTxThroughput_SCH_41_19 0
scalar SlicingScenario.node[1].appl rxTimeOfService_SCH_41_19 85.097231225353
scalar SlicingScenario.node[1].appl txTimeOfService_SCH_41_19 0
scalar SlicingScenario.node[1].nic.phy80211p busyTime 0.36205252173918
scalar SlicingScenario.node[1].nic.phy80211p ncollisions 0
scalar SlicingScenario.node[1].nic.phy80211p UnderSensitivityPackets 1509
scalar SlicingScenario.node[1].nic.mac1609_4 ReceivedUnicastPackets_CCH 0
scalar SlicingScenario.node[1].nic.mac1609_4 ReceivedBroadcasts_CCH 185
scalar SlicingScenario.node[1].nic.mac1609_4 SentPackets_CCH 0
scalar SlicingScenario.node[1].nic.mac1609_4 SentAcknowledgements_CCH 0
scalar SlicingScenario.node[1].nic.mac1609_4 SNIRLostPackets_CCH 0
scalar SlicingScenario.node[1].nic.mac1609_4 RXTXLostPackets_CCH 0
scalar SlicingScenario.node[1].nic.mac1609_4 TotalLostPackets_CCH 0
scalar SlicingScenario.node[1].nic.mac1609_4 DroppedPacketsInMac_CCH 0
scalar SlicingScenario.node[1].nic.mac1609_4 TooLittleTime_CCH 0
scalar SlicingScenario.node[1].nic.mac1609_4 TimesIntoBackoff_CCH 0
scalar SlicingScenario.node[1].nic.mac1609_4 SlotsBackoff_CCH 0
scalar SlicingScenario.node[1].nic.mac1609_4 NumInternalContention_CCH 0
scalar SlicingScenario.node[1].nic.mac1609_4 RemainingPacketsInEDCA_CCH 0
scalar SlicingScenario.node[1].nic.mac1609_4 totalBusyTime_CCH 0.717476576333
scalar SlicingScenario.node[1].nic.mac1609_4 ReceivedUnicastPackets_SCH 0
scalar SlicingScenario.node[1].nic.mac1609_4 ReceivedBroadcasts_SCH 16667
scalar SlicingScenario.node[1].nic.mac1609_4 SentPackets_SCH 0
scalar SlicingScenario.node[1].nic.mac1609_4 SentAcknowledgements_SCH 0
scalar SlicingScenario.node[1].nic.mac1609_4 SNIRLostPackets_SCH 0
scalar SlicingScenario.node[1].nic.mac1609_4 RXTXLostPackets_SCH 0
scalar SlicingScenario.node[1].nic.mac1609_4 TotalLostPackets_SCH 0
scalar SlicingScenario.node[1].nic.mac1609_4 DroppedPacketsInMac_SCH 0
scalar SlicingScenario.node[1].nic.mac1609_4 TooLittleTime_SCH 0
scalar SlicingScenario.node[1].nic.mac1609_4 TimesIntoBackoff_SCH 0
scalar SlicingScenario.node[1].nic.mac1609_4 SlotsBackoff_SCH 0
scalar SlicingScenario.node[1].nic.mac1609_4 NumInternalContention_SCH 0
scalar SlicingScenario.node[1].nic.mac1609_4 RemainingPacketsInEDCA_SCH 0
scalar SlicingScenario.node[1].nic.mac1609_4 totalBusyTime_SCH 32.945136
scalar SlicingScenario.node[1].veinsmobility startTime 1
scalar SlicingScenario.node[1].veinsmobility totalTime 91
scalar SlicingScenario.node[1].veinsmobility stopTime 93
scalar SlicingScenario.node[1].veinsmobility minSpeed 10.61018878933
scalar SlicingScenario.node[1].veinsmobility maxSpeed 11.104938889984
scalar SlicingScenario.node[1].veinsmobility totalDistance 975.84997337344
scalar SlicingScenario.node[1].veinsmobility totalCO2Emission 157.66474642473
scalar SlicingScenario.node[5].appl txPackets_CCH_43 0
scalar SlicingScenario.node[5].appl rxPackets_CCH_43 0
scalar SlicingScenario.node[5].appl rxNeighborPackets_CCH_43 0
scalar SlicingScenario.node[5].appl meanDelay_CCH_43 0
scalar SlicingScenario.node[5].appl meanJitter_CCH_43 0
scalar SlicingScenario.node[5].appl meanRxPacketSize_CCH_43 0
scalar SlicingScenario.node[5].appl meanTxPacketSize_CCH_43 0
scalar SlicingScenario.node[5].appl meanRxThroughput_CCH_43 0
scalar SlicingScenario.node[5].appl meanTxThroughput_CCH_43 0
scalar SlicingScenario.node[5].appl rxTimeOfService_CCH_43 0
scalar SlicingScenario.node[5].appl txTimeOfService_CCH_43 0
scalar SlicingScenario.node[5].appl txPackets_SCH_41_43 0
scalar SlicingScenario.node[5].appl rxPackets_SCH_41_43 1905
scalar SlicingScenario.node[5].appl rxNeighborPackets_SCH_41_43 14025
scalar SlicingScenario.node[5].appl meanDelay_SCH_41_43 32.409586017653
scalar SlicingScenario.node[5].appl meanJitter_SCH_41_43 0.038784872414
scalar SlicingScenario.node[5].appl meanRxPacketSize_SCH_41_43 1438
scalar SlicingScenario.node[5].appl meanTxPacketSize_SCH_41_43 0
scalar SlicingScenario.node[5].appl meanRxThroughput_SCH_41_43 260292.02145488
scalar SlicingScenario.node[5].appl meanTxThroughput_SCH_41_43 0
scalar SlicingScenario.node[5].appl rxTimeOfService_SCH_41_43 84.214644296348
scalar SlicingScenario.node[5].appl txTimeOfService_SCH_41_43 0
scalar SlicingScenario.node[5].nic.phy80211p busyTime 0.37178580645165
scalar SlicingScenario.node[5].nic.phy80211p ncollisions 0
scalar SlicingScenario.node[5].nic.phy80211p UnderSensitivityPackets 1296
scalar SlicingScenario.node[5].nic.mac1609_4 ReceivedUnicastPackets_CCH 0
scalar SlicingScenario.node[5].nic.mac1609_4 ReceivedBroadcasts_CCH 230
scalar SlicingScenario.node[5].nic.mac1609_4 SentPackets_CCH 0
scalar SlicingScenario.node[5].nic.mac1609_4 SentAcknowledgements_CCH 0
scalar SlicingScenario.node[5].nic.mac1609_4 SNIRLostPackets_CCH 0
scalar SlicingScenario.node[5].nic.mac1609_4 RXTXLostPackets_CCH 0
scalar SlicingScenario.node[5].nic.mac1609_4 TotalLostPackets_CCH 0
scalar SlicingScenario.node[5].nic.mac1609_4 DroppedPacketsInMac_CCH 0
scalar SlicingScenario.node[5].nic.mac1609_4 TooLittleTime_CCH 0
scalar SlicingScenario.node[5].nic.mac1609_4 TimesIntoBackoff_CCH 0
scalar SlicingScenario.node[5].nic.mac1609_4 SlotsBackoff_CCH 0
scalar SlicingScenario.node[5].nic.mac1609_4 NumInternalContention_CCH 0
scalar SlicingScenario.node[5].nic.mac1609_4 RemainingPacketsInEDCA_CCH 0
scalar SlicingScenario.node[5].nic.mac1609_4 totalBusyTime_CCH 0.890893794185
scalar SlicingScenario.node[5].nic.mac1609_4 ReceivedUnicastPackets_SCH 0
scalar SlicingScenario.node[5].nic.mac1609_4 ReceivedBroadcasts_SCH 17262
scalar SlicingScenario.node[5].nic.mac1609_4 SentPackets_SCH 0
scalar SlicingScenario.node[5].nic.mac1609_4 SentAcknowledgements_SCH 0
scalar SlicingScenario.node[5].nic.mac1609_4 SNIRLostPackets_SCH 0
scalar SlicingScenario.node[5].nic.mac1609_4 RXTXLostPackets_SCH 0
scalar SlicingScenario.node[5].nic.mac1609_4 TotalLostPackets_SCH 0
scalar SlicingScenario.node[5].nic.mac1609_4 DroppedPacketsInMac_SCH 0
scalar SlicingScenario.node[5].nic.mac1609_4 TooLittleTime_SCH 0
scalar SlicingScenario.node[5].nic.mac1609_4 TimesIntoBackoff_SCH 0
scalar SlicingScenario.node[5].nic.mac1609_4 SlotsBackoff_SCH 0
scalar SlicingScenario.node[5].nic.mac1609_4 NumInternalContention_SCH 0
scalar SlicingScenario.node[5].nic.mac1609_4 RemainingPacketsInEDCA_SCH 0
scalar SlicingScenario.node[5].nic.mac1609_4 totalBusyTime_SCH 34.120128
scalar SlicingScenario.node[5].veinsmobility startTime 2
scalar SlicingScenario.node[5].veinsmobility totalTime 92
scalar SlicingScenario.node[5].veinsmobility stopTime 95
scalar SlicingScenario.node[5].veinsmobility minSpeed 8.479544900286
scalar SlicingScenario.node[5].veinsmobility maxSpeed 11.102362223449
scalar SlicingScenario.node[5].veinsmobility totalDistance 981.83167958584
scalar SlicingScenario.node[5].veinsmobility totalCO2Emission 164.91228434813
scalar SlicingScenario.node[6].appl txPackets_CCH_49 0
scalar SlicingScenario.node[6].appl rxPackets_CCH_49 0
scalar SlicingScenario.node[6].appl rxNeighborPackets_CCH_49 0
scalar SlicingScenario.node[6].appl meanDelay_CCH_49 0
scalar SlicingScenario.node[6].appl meanJitter_CCH_49 0
scalar SlicingScenario.node[6].appl meanRxPacketSize_CCH_49 0
scalar SlicingScenario.node[6].appl meanTxPacketSize_CCH_49 0
scalar SlicingScenario.node[6].appl meanRxThroughput_CCH_49 0
scalar SlicingScenario.node[6].appl meanTxThroughput_CCH_49 0
scalar SlicingScenario.node[6].appl rxTimeOfService_CCH_49 0
scalar SlicingScenario.node[6].appl txTimeOfService_CCH_49 0
scalar SlicingScenario.node[6].appl txPackets_SCH_41_49 0
scalar SlicingScenario.node[6].appl rxPackets_SCH_41_49 1771
scalar SlicingScenario.node[6].appl rxNeighborPackets_SCH_41_49 14159
scalar SlicingScenario.node[6].appl meanDelay_SCH_41_49 34.916424455267
scalar SlicingScenario.node[6].appl meanJitter_SCH_41_49 0.041803052975
scalar SlicingScenario.node[6].appl meanRxPacketSize_SCH_41_49 1438
scalar SlicingScenario.node[6].appl meanTxPacketSize_SCH_41_49 0
scalar SlicingScenario.node[6].appl meanRxThroughput_SCH_41_49 250416.03231674
scalar SlicingScenario.node[6].appl meanTxThroughput_SCH_41_49 0
scalar SlicingScenario.node[6].appl rxTimeOfService_SCH_41_49 81.3912743982
scalar SlicingScenario.node[6].appl txTimeOfService_SCH_41_49 0
scalar SlicingScenario.node[6].nic.phy80211p busyTime 0.37178580645165
scalar SlicingScenario.node[6].nic.phy80211p ncollisions 0
scalar SlicingScenario.node[6].nic.phy80211p UnderSensitivityPackets 1296
scalar SlicingScenario.node[6].nic.mac1609_4 ReceivedUnicastPackets_CCH 0
scalar SlicingScenario.node[6].nic.mac1609_4 ReceivedBroadcasts_CCH 243
scalar SlicingScenario.node[6].nic.mac1609_4 SentPackets_CCH 0
scalar SlicingScenario.node[6].nic.mac1609_4 SentAcknowledgements_CCH 0
scalar SlicingScenario.node[6].nic.mac1609_4 SNIRLostPackets_CCH 0
scalar SlicingScenario.node[6].nic.mac1609_4 RXTXLostPackets_CCH 0
scalar SlicingScenario.node[6].nic.mac1609_4 TotalLostPackets_CCH 0
scalar SlicingScenario.node[6].nic.mac1609_4 DroppedPacketsInMac_CCH 0
scalar SlicingScenario.node[6].nic.mac1609_4 TooLittleTime_CCH 0
scalar SlicingScenario.node[6].nic.mac1609_4 TimesIntoBackoff_CCH 0
scalar SlicingScenario.node[6].nic.mac1609_4 SlotsBackoff_CCH 0
scalar SlicingScenario.node[6].nic.mac1609_4 NumInternalContention_CCH 0
scalar SlicingScenario.node[6].nic.mac1609_4 RemainingPacketsInEDCA_CCH 0
scalar SlicingScenario.node[6].nic.mac1609_4 totalBusyTime_CCH 0.937529224786
scalar SlicingScenario.node[6].nic.mac1609_4 ReceivedUnicastPackets_SCH 0
scalar SlicingScenario.node[6].nic.mac1609_4 ReceivedBroadcasts_SCH 17249
scalar SlicingScenario.node[6].nic.mac1609_4 SentPackets_SCH 0
scalar SlicingScenario.node[6].nic.mac1609_4 SentAcknowledgements_SCH 0
scalar SlicingScenario.node[6].nic.mac1609_4 SNIRLostPackets_SCH 0
scalar SlicingScenario.node[6].nic.mac1609_4 RXTXLostPackets_SCH 0
scalar SlicingScenario.node[6].nic.mac1609_4 TotalLostPackets_SCH 0
scalar SlicingScenario.node[6].nic.mac1609_4 DroppedPacketsInMac_SCH 0
scalar SlicingScenario.node[6].nic.mac1609_4 TooLittleTime_SCH 0
scalar SlicingScenario.node[6].nic.mac1609_4 TimesIntoBackoff_SCH 0
scalar SlicingScenario.node[6].nic.mac1609_4 SlotsBackoff_SCH 0
scalar SlicingScenario.node[6].nic.mac1609_4 NumInternalContention_SCH 0
scalar SlicingScenario.node[6].nic.mac1609_4 RemainingPacketsInEDCA_SCH 0
scalar SlicingScenario.node[6].nic.mac1609_4 totalBusyTime_SCH 34.09464
scalar SlicingScenario.node[6].veinsmobility startTime 2
scalar SlicingScenario.node[6].veinsmobility totalTime 92
scalar SlicingScenario.node[6].veinsmobility stopTime 95
scalar SlicingScenario.node[6].veinsmobility minSpeed 7.9644129621894
scalar SlicingScenario.node[6].veinsmobility maxSpeed 11.105366531075
scalar SlicingScenario.node[6].veinsmobility totalDistance 980.66100032313
scalar SlicingScenario.node[6].veinsmobility totalCO2Emission 167.33388753172
scalar SlicingScenario.node[4].appl txPackets_CCH_37 0
scalar SlicingScenario.node[4].appl rxPackets_CCH_37 0
scalar SlicingScenario.node[4].appl rxNeighborPackets_CCH_37 0
scalar SlicingScenario.node[4].appl meanDelay_CCH_37 0
scalar SlicingScenario.node[4].appl meanJitter_CCH_37 0
scalar SlicingScenario.node[4].appl meanRxPacketSize_CCH_37 0
scalar SlicingScenario.node[4].appl meanTxPacketSize_CCH_37 0
scalar SlicingScenario.node[4].appl meanRxThroughput_CCH_37 0
scalar SlicingScenario.node[4].appl meanTxThroughput_CCH_37 0
scalar SlicingScenario.node[4].appl rxTimeOfService_CCH_37 0
scalar SlicingScenario.node[4].appl txTimeOfService_CCH_37 0
scalar SlicingScenario.node[4].appl txPackets_SCH_40_37 0
scalar SlicingScenario.node[4].appl rxPackets_SCH_40_37 272
scalar SlicingScenario.node[4].appl rxNeighborPackets_SCH_40_37 1290
scalar SlicingScenario.node[4].appl meanDelay_SCH_40_37 32.75596675735
scalar SlicingScenario.node[4].appl meanJitter_SCH_40_37 0.273140906788
scalar SlicingScenario.node[4].appl meanRxPacketSize_SCH_40_37 1510
scalar SlicingScenario.node[4].appl meanTxPacketSize_SCH_40_37 0
scalar SlicingScenario.node[4].appl meanRxThroughput_SCH_40_37 39106.599447834
scalar SlicingScenario.node[4].appl meanTxThroughput_SCH_40_37 0
scalar SlicingScenario.node[4].appl rxTimeOfService_SCH_40_37 84.020601289636
scalar SlicingScenario.node[4].appl txTimeOfService_SCH_40_37 0
scalar SlicingScenario.node[4].nic.phy80211p busyTime 0.37178580645165
scalar SlicingScenario.node[4].nic.phy80211p ncollisions 0
scalar SlicingScenario.node[4].nic.phy80211p UnderSensitivityPackets 1296
scalar SlicingScenario.node[4].nic.mac1609_4 ReceivedUnicastPackets_CCH 0
scalar SlicingScenario.node[4].nic.mac1609_4 ReceivedBroadcasts_CCH 101
scalar SlicingScenario.node[4].nic.mac1609_4 SentPackets_CCH 0
scalar SlicingScenario.node[4].nic.mac1609_4 SentAcknowledgements_CCH 0
scalar SlicingScenario.node[4].nic.mac1609_4 SNIRLostPackets_CCH 0
scalar SlicingScenario.node[4].nic.mac1609_4 RXTXLostPackets_CCH 0
scalar SlicingScenario.node[4].nic.mac1609_4 TotalLostPackets_CCH 0
scalar SlicingScenario.node[4].nic.mac1609_4 DroppedPacketsInMac_CCH 0
scalar SlicingScenario.node[4].nic.mac1609_4 TooLittleTime_CCH 0
scalar SlicingScenario.node[4].nic.mac1609_4 TimesIntoBackoff_CCH 0
scalar SlicingScenario.node[4].nic.mac1609_4 SlotsBackoff_CCH 0
scalar SlicingScenario.node[4].nic.mac1609_4 NumInternalContention_CCH 0
scalar SlicingScenario.node[4].nic.mac1609_4 RemainingPacketsInEDCA_CCH 0
scalar SlicingScenario.node[4].nic.mac1609_4 totalBusyTime_CCH 0.393748042042
scalar SlicingScenario.node[4].nic.mac1609_4 ReceivedUnicastPackets_SCH 0
scalar SlicingScenario.node[4].nic.mac1609_4 ReceivedBroadcasts_SCH 17391
scalar SlicingScenario.node[4].nic.mac1609_4 SentPackets_SCH 0
scalar SlicingScenario.node[4].nic.mac1609_4 SentAcknowledgements_SCH 0
scalar SlicingScenario.node[4].nic.mac1609_4 SNIRLostPackets_SCH 0
scalar SlicingScenario.node[4].nic.mac1609_4 RXTXLostPackets_SCH 0
scalar SlicingScenario.node[4].nic.mac1609_4 TotalLostPackets_SCH 0
scalar SlicingScenario.node[4].nic.mac1609_4 DroppedPacketsInMac_SCH 0
scalar SlicingScenario.node[4].nic.mac1609_4 TooLittleTime_SCH 0
scalar SlicingScenario.node[4].nic.mac1609_4 TimesIntoBackoff_SCH 0
scalar SlicingScenario.node[4].nic.mac1609_4 SlotsBackoff_SCH 0
scalar SlicingScenario.node[4].nic.mac1609_4 NumInternalContention_SCH 0
scalar SlicingScenario.node[4].nic.mac1609_4 RemainingPacketsInEDCA_SCH 0
scalar SlicingScenario.node[4].nic.mac1609_4 totalBusyTime_SCH 34.376304
scalar SlicingScenario.node[4].veinsmobility startTime 2
scalar SlicingScenario.node[4].veinsmobility totalTime 92
scalar SlicingScenario.node[4].veinsmobility stopTime 95
scalar SlicingScenario.node[4].veinsmobility minSpeed 7.9042404400981
scalar SlicingScenario.node[4].veinsmobility maxSpeed 11.109698459869
scalar SlicingScenario.node[4].veinsmobility totalDistance 981.68981509391
scalar SlicingScenario.node[4].veinsmobility totalCO2Emission 167.18846154874
scalar SlicingScenario.node[7].appl txPackets_CCH_55 0
scalar SlicingScenario.node[7].appl rxPackets_CCH_55 0
scalar SlicingScenario.node[7].appl rxNeighborPackets_CCH_55 0
scalar SlicingScenario.node[7].appl meanDelay_CCH_55 0
scalar SlicingScenario.node[7].appl meanJitter_CCH_55 0
scalar SlicingScenario.node[7].appl meanRxPacketSize_CCH_55 0
scalar SlicingScenario.node[7].appl meanTxPacketSize_CCH_55 0
scalar SlicingScenario.node[7].appl meanRxThroughput_CCH_55 0
scalar SlicingScenario.node[7].appl meanTxThroughput_CCH_55 0
scalar SlicingScenario.node[7].appl rxTimeOfService_CCH_55 0
scalar SlicingScenario.node[7].appl txTimeOfService_CCH_55 0
scalar SlicingScenario.node[7].appl txPackets_SCH_41_55 0
scalar SlicingScenario.node[7].appl rxPackets_SCH_41_55 1884
scalar SlicingScenario.node[7].appl rxNeighborPackets_SCH_41_55 13849
scalar SlicingScenario.node[7].appl meanDelay_SCH_41_55 32.134911170225
scalar SlicingScenario.node[7].appl meanJitter_SCH_41_55 0.039204952592
scalar SlicingScenario.node[7].appl meanRxPacketSize_SCH_41_55 1438
scalar SlicingScenario.node[7].appl meanTxPacketSize_SCH_41_55 0
scalar SlicingScenario.node[7].appl meanRxThroughput_SCH_41_55 257521.14056121
scalar SlicingScenario.node[7].appl meanTxThroughput_SCH_41_55 0
scalar SlicingScenario.node[7].appl rxTimeOfService_SCH_41_55 84.197825284352
scalar SlicingScenario.node[7].appl txTimeOfService_SCH_41_55 0
scalar SlicingScenario.node[7].nic.phy80211p busyTime 0.36715716129036
scalar SlicingScenario.node[7].nic.phy80211p ncollisions 0
scalar SlicingScenario.node[7].nic.phy80211p UnderSensitivityPackets 1514
scalar SlicingScenario.node[7].nic.mac1609_4 ReceivedUnicastPackets_CCH 0
scalar SlicingScenario.node[7].nic.mac1609_4 ReceivedBroadcasts_CCH 249
scalar SlicingScenario.node[7].nic.mac1609_4 SentPackets_CCH 0
scalar SlicingScenario.node[7].nic.mac1609_4 SentAcknowledgements_CCH 0
scalar SlicingScenario.node[7].nic.mac1609_4 SNIRLostPackets_CCH 0
scalar SlicingScenario.node[7].nic.mac1609_4 RXTXLostPackets_CCH 0
scalar SlicingScenario.node[7].nic.mac1609_4 TotalLostPackets_CCH 0
scalar SlicingScenario.node[7].nic.mac1609_4 DroppedPacketsInMac_CCH 0
scalar SlicingScenario.node[7].nic.mac1609_4 TooLittleTime_CCH 0
scalar SlicingScenario.node[7].nic.mac1609_4 TimesIntoBackoff_CCH 0
scalar SlicingScenario.node[7].nic.mac1609_4 SlotsBackoff_CCH 0
scalar SlicingScenario.node[7].nic.mac1609_4 NumInternalContention_CCH 0
scalar SlicingScenario.node[7].nic.mac1609_4 RemainingPacketsInEDCA_CCH 0
scalar SlicingScenario.node[7].nic.mac1609_4 totalBusyTime_CCH 0.960642476607
scalar SlicingScenario.node[7].nic.mac1609_4 ReceivedUnicastPackets_SCH 0
scalar SlicingScenario.node[7].nic.mac1609_4 ReceivedBroadcasts_SCH 17025
scalar SlicingScenario.node[7].nic.mac1609_4 SentPackets_SCH 0
scalar SlicingScenario.node[7].nic.mac1609_4 SentAcknowledgements_SCH 0
scalar SlicingScenario.node[7].nic.mac1609_4 SNIRLostPackets_SCH 0
scalar SlicingScenario.node[7].nic.mac1609_4 RXTXLostPackets_SCH 0
scalar SlicingScenario.node[7].nic.mac1609_4 TotalLostPackets_SCH 0
scalar SlicingScenario.node[7].nic.mac1609_4 DroppedPacketsInMac_SCH 0
scalar SlicingScenario.node[7].nic.mac1609_4 TooLittleTime_SCH 0
scalar SlicingScenario.node[7].nic.mac1609_4 TimesIntoBackoff_SCH 0
scalar SlicingScenario.node[7].nic.mac1609_4 SlotsBackoff_SCH 0
scalar SlicingScenario.node[7].nic.mac1609_4 NumInternalContention_SCH 0
scalar SlicingScenario.node[7].nic.mac1609_4 RemainingPacketsInEDCA_SCH 0
scalar SlicingScenario.node[7].nic.mac1609_4 totalBusyTime_SCH 33.652464
scalar SlicingScenario.node[7].veinsmobility startTime 2
scalar SlicingScenario.node[7].veinsmobility totalTime 92
scalar SlicingScenario.node[7].veinsmobility stopTime 95
scalar SlicingScenario.node[7].veinsmobility minSpeed 8.0630474085202
scalar SlicingScenario.node[7].veinsmobility maxSpeed 11.10779469124
scalar SlicingScenario.node[7].veinsmobility totalDistance 978.60641703766
scalar SlicingScenario.node[7].veinsmobility totalCO2Emission 165.87335741036
scalar SlicingScenario.node[8].appl txPackets_CCH_61 0
scalar SlicingScenario.node[8].appl rxPackets_CCH_61 0
scalar SlicingScenario.node[8].appl rxNeighborPackets_CCH_61 0
scalar SlicingScenario.node[8].appl meanDelay_CCH_61 0
scalar SlicingScenario.node[8].appl meanJitter_CCH_61 0
scalar SlicingScenario.node[8].appl meanRxPacketSize_CCH_61 0
scalar SlicingScenario.node[8].appl meanTxPacketSize_CCH_61 0
scalar SlicingScenario.node[8].appl meanRxThroughput_CCH_61 0
scalar SlicingScenario.node[8].appl meanTxThroughput_CCH_61 0
scalar SlicingScenario.node[8].appl rxTimeOfService_CCH_61 0
scalar SlicingScenario.node[8].appl txTimeOfService_CCH_61 0
scalar SlicingScenario.node[8].appl txPackets_SCH_41_61 0
scalar SlicingScenario.node[8].appl rxPackets_SCH_41_61 1585
scalar SlicingScenario.node[8].appl rxNeighborPackets_SCH_41_61 14531
scalar SlicingScenario.node[8].appl meanDelay_SCH_41_61 39.698743321602
scalar SlicingScenario.node[8].appl meanJitter_SCH_41_61 0.048420498441
scalar SlicingScenario.node[8].appl meanRxPacketSize_SCH_41_61 1438
scalar SlicingScenario.node[8].appl meanTxPacketSize_SCH_41_61 0
scalar SlicingScenario.node[8].appl meanRxThroughput_SCH_41_61 229273.42470949
scalar SlicingScenario.node[8].appl meanTxThroughput_SCH_41_61 0
scalar SlicingScenario.node[8].appl rxTimeOfService_SCH_41_61 79.567878497542
scalar SlicingScenario.node[8].appl txTimeOfService_SCH_41_61 0
scalar SlicingScenario.node[8].nic.phy80211p busyTime 0.36843890526319
scalar SlicingScenario.node[8].nic.phy80211p ncollisions 0
scalar SlicingScenario.node[8].nic.phy80211p UnderSensitivityPackets 1722
scalar SlicingScenario.node[8].nic.mac1609_4 ReceivedUnicastPackets_CCH 0
scalar SlicingScenario.node[8].nic.mac1609_4 ReceivedBroadcasts_CCH 207
scalar SlicingScenario.node[8].nic.mac1609_4 SentPackets_CCH 0
scalar SlicingScenario.node[8].nic.mac1609_4 SentAcknowledgements_CCH 0
scalar SlicingScenario.node[8].nic.mac1609_4 SNIRLostPackets_CCH 0
scalar SlicingScenario.node[8].nic.mac1609_4 RXTXLostPackets_CCH 0
scalar SlicingScenario.node[8].nic.mac1609_4 TotalLostPackets_CCH 0
scalar SlicingScenario.node[8].nic.mac1609_4 DroppedPacketsInMac_CCH 0
scalar SlicingScenario.node[8].nic.mac1609_4 TooLittleTime_CCH 0
scalar SlicingScenario.node[8].nic.mac1609_4 TimesIntoBackoff_CCH 0
scalar SlicingScenario.node[8].nic.mac1609_4 SlotsBackoff_CCH 0
scalar SlicingScenario.node[8].nic.mac1609_4 NumInternalContention_CCH 0
scalar SlicingScenario.node[8].nic.mac1609_4 RemainingPacketsInEDCA_CCH 0
scalar SlicingScenario.node[8].nic.mac1609_4 totalBusyTime_CCH 0.801683182786
scalar SlicingScenario.node[8].nic.mac1609_4 ReceivedUnicastPackets_SCH 0
scalar SlicingScenario.node[8].nic.mac1609_4 ReceivedBroadcasts_SCH 17501
scalar SlicingScenario.node[8].nic.mac1609_4 SentPackets_SCH 0
scalar SlicingScenario.node[8].nic.mac1609_4 SentAcknowledgements_SCH 0
scalar SlicingScenario.node[8].nic.mac1609_4 SNIRLostPackets_SCH 0
scalar SlicingScenario.node[8].nic.mac1609_4 RXTXLostPackets_SCH 0
scalar SlicingScenario.node[8].nic.mac1609_4 TotalLostPackets_SCH 0
scalar SlicingScenario.node[8].nic.mac1609_4 DroppedPacketsInMac_SCH 0
scalar SlicingScenario.node[8].nic.mac1609_4 TooLittleTime_SCH 0
scalar SlicingScenario.node[8].nic.mac1609_4 TimesIntoBackoff_SCH 0
scalar SlicingScenario.node[8].nic.mac1609_4 SlotsBackoff_SCH 0
scalar SlicingScenario.node[8].nic.mac1609_4 NumInternalContention_SCH 0
scalar SlicingScenario.node[8].nic.mac1609_4 RemainingPacketsInEDCA_SCH 0
scalar SlicingScenario.node[8].nic.mac1609_4 totalBusyTime_SCH 34.594608
scalar SlicingScenario.node[8].veinsmobility startTime 3
scalar SlicingScenario.node[8].veinsmobility totalTime 94
scalar SlicingScenario.node[8].veinsmobility stopTime 98
scalar SlicingScenario.node[8].veinsmobility minSpeed 5.3032025295645
scalar SlicingScenario.node[8].veinsmobility maxSpeed 11.108318624101
scalar SlicingScenario.node[8].veinsmobility totalDistance 985.0106217144
scalar SlicingScenario.node[8].veinsmobility totalCO2Emission 173.32338160151
scalar SlicingScenario.node[10].appl txPackets_CCH_73 0
scalar SlicingScenario.node[10].appl rxPackets_CCH_73 0
scalar SlicingScenario.node[10].appl rxNeighborPackets_CCH_73 0
scalar SlicingScenario.node[10].appl meanDelay_CCH_73 0
scalar SlicingScenario.node[10].appl meanJitter_CCH_73 0
scalar SlicingScenario.node[10].appl meanRxPacketSize_CCH_73 0
scalar SlicingScenario.node[10].appl meanTxPacketSize_CCH_73 0
scalar SlicingScenario.node[10].appl meanRxThroughput_CCH_73 0
scalar SlicingScenario.node[10].appl meanTxThroughput_CCH_73 0
scalar SlicingScenario.node[10].appl rxTimeOfService_CCH_73 0
scalar SlicingScenario.node[10].appl txTimeOfService_CCH_73 0
scalar SlicingScenario.node[10].appl txPackets_SCH_40_73 0
scalar SlicingScenario.node[10].appl rxPackets_SCH_40_73 222
scalar SlicingScenario.node[10].appl rxNeighborPackets_SCH_40_73 1368
scalar SlicingScenario.node[10].appl meanDelay_SCH_40_73 40.18384394276
scalar SlicingScenario.node[10].appl meanJitter_SCH_40_73 0.34750249714
scalar SlicingScenario.node[10].appl meanRxPacketSize_SCH_40_73 1510
scalar SlicingScenario.node[10].appl meanTxPacketSize_SCH_40_73 0
scalar SlicingScenario.node[10].appl meanRxThroughput_SCH_40_73 34074.833734716
scalar SlicingScenario.node[10].appl meanTxThroughput_SCH_40_73 0
scalar SlicingScenario.node[10].appl rxTimeOfService_SCH_40_73 78.702071472408
scalar SlicingScenario.node[10].appl txTimeOfService_SCH_40_73 0
scalar SlicingScenario.node[10].nic.phy80211p busyTime 0.36863444210529
scalar SlicingScenario.node[10].nic.phy80211p ncollisions 0
scalar SlicingScenario.node[10].nic.phy80211p UnderSensitivityPackets 1713
scalar SlicingScenario.node[10].nic.mac1609_4 ReceivedUnicastPackets_CCH 0
scalar SlicingScenario.node[10].nic.mac1609_4 ReceivedBroadcasts_CCH 295
scalar SlicingScenario.node[10].nic.mac1609_4 SentPackets_CCH 0
scalar SlicingScenario.node[10].nic.mac1609_4 SentAcknowledgements_CCH 0
scalar SlicingScenario.node[10].nic.mac1609_4 SNIRLostPackets_CCH 0
scalar SlicingScenario.node[10].nic.mac1609_4 RXTXLostPackets_CCH 0
scalar SlicingScenario.node[10].nic.mac1609_4 TotalLostPackets_CCH 0
scalar SlicingScenario.node[10].nic.mac1609_4 DroppedPacketsInMac_CCH 0
scalar SlicingScenario.node[10].nic.mac1609_4 TooLittleTime_CCH 0
scalar SlicingScenario.node[10].nic.mac1609_4 TimesIntoBackoff_CCH 0
scalar SlicingScenario.node[10].nic.mac1609_4 SlotsBackoff_CCH 0
scalar SlicingScenario.node[10].nic.mac1609_4 NumInternalContention_CCH 0
scalar SlicingScenario.node[10].nic.mac1609_4 RemainingPacketsInEDCA_CCH 0
scalar SlicingScenario.node[10].nic.mac1609_4 totalBusyTime_CCH 1.131010252232
scalar SlicingScenario.node[10].nic.mac1609_4 ReceivedUnicastPackets_SCH 0
scalar SlicingScenario.node[10].nic.mac1609_4 ReceivedBroadcasts_SCH 17422
scalar SlicingScenario.node[10].nic.mac1609_4 SentPackets_SCH 0
scalar SlicingScenario.node[10].nic.mac1609_4 SentAcknowledgements_SCH 0
scalar SlicingScenario.node[10].nic.mac1609_4 SNIRLostPackets_SCH 0
scalar SlicingScenario.node[10].nic.mac1609_4 RXTXLostPackets_SCH 0
scalar SlicingScenario.node[10].nic.mac1609_4 TotalLostPackets_SCH 0
scalar SlicingScenario.node[10].nic.mac1609_4 DroppedPacketsInMac_SCH 0
scalar SlicingScenario.node[10].nic.mac1609_4 TooLittleTime_SCH 0
scalar SlicingScenario.node[10].nic.mac1609_4 TimesIntoBackoff_SCH 0
scalar SlicingScenario.node[10].nic.mac1609_4 SlotsBackoff_SCH 0
scalar SlicingScenario.node[10].nic.mac1609_4 NumInternalContention_SCH 0
scalar SlicingScenario.node[10].nic.mac1609_4 RemainingPacketsInEDCA_SCH 0
scalar SlicingScenario.node[10].nic.mac1609_4 totalBusyTime_SCH 34.436928
scalar SlicingScenario.node[10].veinsmobility startTime 3
scalar SlicingScenario.node[10].veinsmobility totalTime 94
scalar SlicingScenario.node[10].veinsmobility stopTime 98
scalar SlicingScenario.node[10].veinsmobility minSpeed 4.6426534842672
scalar SlicingScenario.node[10].veinsmobility maxSpeed 11.107557403636
scalar SlicingScenario.node[10].veinsmobility totalDistance 976.86652229172
scalar SlicingScenario.node[10].veinsmobility totalCO2Emission 173.14383015959
scalar SlicingScenario.node[11].appl txPackets_CCH_79 0
scalar SlicingScenario.node[11].appl rxPackets_CCH_79 0
scalar SlicingScenario.node[11].appl rxNeighborPackets_CCH_79 0
scalar SlicingScenario.node[11].appl meanDelay_CCH_79 0
scalar SlicingScenario.node[11].appl meanJitter_CCH_79 0
scalar SlicingScenario.node[11].appl meanRxPacketSize_CCH_79 0
scalar SlicingScenario.node[11].appl meanTxPacketSize_CCH_79 0
scalar SlicingScenario.node[11].appl meanRxThroughput_CCH_79 0
scalar SlicingScenario.node[11].appl meanTxThroughput_CCH_79 0
scalar SlicingScenario.node[11].appl rxTimeOfService_CCH_79 0
scalar SlicingScenario.node[11].appl txTimeOfService_CCH_79 0
scalar SlicingScenario.node[11].appl txPackets_SCH_41_79 0
scalar SlicingScenario.node[11].appl rxPackets_SCH_41_79 1540
scalar SlicingScenario.node[11].appl rxNeighborPackets_SCH_41_79 14972
scalar SlicingScenario.node[11].appl meanDelay_SCH_41_79 41.276529314785
scalar SlicingScenario.node[11].appl meanJitter_SCH_41_79 0.049782067297
scalar SlicingScenario.node[11].appl meanRxPacketSize_SCH_41_79 1438
scalar SlicingScenario.node[11].appl meanTxPacketSize_SCH_41_79 0
scalar SlicingScenario.node[11].appl meanRxThroughput_SCH_41_79 231675.97274775
scalar SlicingScenario.node[11].appl meanTxThroughput_SCH_41_79 0
scalar SlicingScenario.node[11].appl rxTimeOfService_SCH_41_79 76.499948569535
scalar SlicingScenario.node[11].appl txTimeOfService_SCH_41_79 0
scalar SlicingScenario.node[11].nic.phy80211p busyTime 0.37740682105265
scalar SlicingScenario.node[11].nic.phy80211p ncollisions 0
scalar SlicingScenario.node[11].nic.phy80211p UnderSensitivityPackets 1291
scalar SlicingScenario.node[11].nic.mac1609_4 ReceivedUnicastPackets_CCH 0
scalar SlicingScenario.node[11].nic.mac1609_4 ReceivedBroadcasts_CCH 298
scalar SlicingScenario.node[11].nic.mac1609_4 SentPackets_CCH 0
scalar SlicingScenario.node[11].nic.mac1609_4 SentAcknowledgements_CCH 0
scalar SlicingScenario.node[11].nic.mac1609_4 SNIRLostPackets_CCH 0
scalar SlicingScenario.node[11].nic.mac1609_4 RXTXLostPackets_CCH 0
scalar SlicingScenario.node[11].nic.mac1609_4 TotalLostPackets_CCH 0
scalar SlicingScenario.node[11].nic.mac1609_4 DroppedPacketsInMac_CCH 0
scalar SlicingScenario.node[11].nic.mac1609_4 TooLittleTime_CCH 0
scalar SlicingScenario.node[11].nic.mac1609_4 TimesIntoBackoff_CCH 0
scalar SlicingScenario.node[11].nic.mac1609_4 SlotsBackoff_CCH 0
scalar SlicingScenario.node[11].nic.mac1609_4 NumInternalContention_CCH 0
scalar SlicingScenario.node[11].nic.mac1609_4 RemainingPacketsInEDCA_CCH 0
scalar SlicingScenario.node[11].nic.mac1609_4 totalBusyTime_CCH 1.139252730571
scalar SlicingScenario.node[11].nic.mac1609_4 ReceivedUnicastPackets_SCH 0
scalar SlicingScenario.node[11].nic.mac1609_4 ReceivedBroadcasts_SCH 17841
scalar SlicingScenario.node[11].nic.mac1609_4 SentPackets_SCH 0
scalar SlicingScenario.node[11].nic.mac1609_4 SentAcknowledgements_SCH 0
scalar SlicingScenario.node[11].nic.mac1609_4 SNIRLostPackets_SCH 0
scalar SlicingScenario.node[11].nic.mac1609_4 RXTXLostPackets_SCH 0
scalar SlicingScenario.node[11].nic.mac1609_4 TotalLostPackets_SCH 0
scalar SlicingScenario.node[11].nic.mac1609_4 DroppedPacketsInMac_SCH 0
scalar SlicingScenario.node[11].nic.mac1609_4 TooLittleTime_SCH 0
scalar SlicingScenario.node[11].nic.mac1609_4 TimesIntoBackoff_SCH 0
scalar SlicingScenario.node[11].nic.mac1609_4 SlotsBackoff_SCH 0
scalar SlicingScenario.node[11].nic.mac1609_4 NumInternalContention_SCH 0
scalar SlicingScenario.node[11].nic.mac1609_4 RemainingPacketsInEDCA_SCH 0
scalar SlicingScenario.node[11].nic.mac1609_4 totalBusyTime_SCH 35.264784
scalar SlicingScenario.node[11].veinsmobility startTime 3
scalar SlicingScenario.node[11].veinsmobility totalTime 94
scalar SlicingScenario.node[11].veinsmobility stopTime 98
scalar SlicingScenario.node[11].veinsmobility minSpeed 4.3380789243588
scalar SlicingScenario.node[11].veinsmobility maxSpeed 11.101546072997
scalar SlicingScenario.node[11].veinsmobility totalDistance 981.20500077332
scalar SlicingScenario.node[11].veinsmobility totalCO2Emission 174.91491325532
scalar SlicingScenario.node[9].appl txPackets_CCH_67 0
scalar SlicingScenario.node[9].appl rxPackets_CCH_67 0
scalar SlicingScenario.node[9].appl rxNeighborPackets_CCH_67 0
scalar SlicingScenario.node[9].appl meanDelay_CCH_67 0
scalar SlicingScenario.node[9].appl meanJitter_CCH_67 0
scalar SlicingScenario.node[9].appl meanRxPacketSize_CCH_67 0
scalar SlicingScenario.node[9].appl meanTxPacketSize_CCH_67 0
scalar SlicingScenario.node[9].appl meanRxThroughput_CCH_67 0
scalar SlicingScenario.node[9].appl meanTxThroughput_CCH_67 0
scalar SlicingScenario.node[9].appl rxTimeOfService_CCH_67 0
scalar SlicingScenario.node[9].appl txTimeOfService_CCH_67 0
scalar SlicingScenario.node[9].appl txPackets_SCH_41_67 0
scalar SlicingScenario.node[9].appl rxPackets_SCH_41_67 1540
scalar SlicingScenario.node[9].appl rxNeighborPackets_SCH_41_67 14576
scalar SlicingScenario.node[9].appl meanDelay_SCH_41_67 40.619476848161
scalar SlicingScenario.node[9].appl meanJitter_SCH_41_67 0.049789808163
scalar SlicingScenario.node[9].appl meanRxPacketSize_SCH_41_67 1438
scalar SlicingScenario.node[9].appl meanTxPacketSize_SCH_41_67 0
scalar SlicingScenario.node[9].appl meanRxThroughput_SCH_41_67 227214.25123333
scalar SlicingScenario.node[9].appl meanTxThroughput_SCH_41_67 0
scalar SlicingScenario.node[9].appl rxTimeOfService_SCH_41_67 78.002149529784
scalar SlicingScenario.node[9].appl txTimeOfService_SCH_41_67 0
scalar SlicingScenario.node[9].nic.phy80211p busyTime 0.36843890526319
scalar SlicingScenario.node[9].nic.phy80211p ncollisions 0
scalar SlicingScenario.node[9].nic.phy80211p UnderSensitivityPackets 1722
scalar SlicingScenario.node[9].nic.mac1609_4 ReceivedUnicastPackets_CCH 0
scalar SlicingScenario.node[9].nic.mac1609_4 ReceivedBroadcasts_CCH 207
scalar SlicingScenario.node[9].nic.mac1609_4 SentPackets_CCH 0
scalar SlicingScenario.node[9].nic.mac1609_4 SentAcknowledgements_CCH 0
scalar SlicingScenario.node[9].nic.mac1609_4 SNIRLostPackets_CCH 0
scalar SlicingScenario.node[9].nic.mac1609_4 RXTXLostPackets_CCH 0
scalar SlicingScenario.node[9].nic.mac1609_4 TotalLostPackets_CCH 0
scalar SlicingScenario.node[9].nic.mac1609_4 DroppedPacketsInMac_CCH 0
scalar SlicingScenario.node[9].nic.mac1609_4 TooLittleTime_CCH 0
scalar SlicingScenario.node[9].nic.mac1609_4 TimesIntoBackoff_CCH 0
scalar SlicingScenario.node[9].nic.mac1609_4 SlotsBackoff_CCH 0
scalar SlicingScenario.node[9].nic.mac1609_4 NumInternalContention_CCH 0
scalar SlicingScenario.node[9].nic.mac1609_4 RemainingPacketsInEDCA_CCH 0
scalar SlicingScenario.node[9].nic.mac1609_4 totalBusyTime_CCH 0.800203040165
scalar SlicingScenario.node[9].nic.mac1609_4 ReceivedUnicastPackets_SCH 0
scalar SlicingScenario.node[9].nic.mac1609_4 ReceivedBroadcasts_SCH 17501
scalar SlicingScenario.node[9].nic.mac1609_4 SentPackets_SCH 0
scalar SlicingScenario.node[9].nic.mac1609_4 SentAcknowledgements_SCH 0
scalar SlicingScenario.node[9].nic.mac1609_4 SNIRLostPackets_SCH 0
scalar SlicingScenario.node[9].nic.mac1609_4 RXTXLostPackets_SCH 0
scalar SlicingScenario.node[9].nic.mac1609_4 TotalLostPackets_SCH 0
scalar SlicingScenario.node[9].nic.mac1609_4 DroppedPacketsInMac_SCH 0
scalar SlicingScenario.node[9].nic.mac1609_4 TooLittleTime_SCH 0
scalar SlicingScenario.node[9].nic.mac1609_4 TimesIntoBackoff_SCH 0
scalar SlicingScenario.node[9].nic.mac1609_4 SlotsBackoff_SCH 0
scalar SlicingScenario.node[9].nic.mac1609_4 NumInternalContention_SCH 0
scalar SlicingScenario.node[9].nic.mac1609_4 RemainingPacketsInEDCA_SCH 0
scalar SlicingScenario.node[9].nic.mac1609_4 totalBusyTime_SCH 34.594608
scalar SlicingScenario.node[9].veinsmobility startTime 3
scalar SlicingScenario.node[9].veinsmobility totalTime 94
scalar SlicingScenario.node[9].veinsmobility stopTime 98
scalar SlicingScenario.node[9].veinsmobility minSpeed 4.9892539648674
scalar SlicingScenario.node[9].veinsmobility maxSpeed 11.089700230295
scalar SlicingScenario.node[9].veinsmobility totalDistance 984.18517440118
scalar SlicingScenario.node[9].veinsmobility totalCO2Emission 174.19658140331
scalar SlicingScenario.node[13].appl txPackets_CCH_91 0
scalar SlicingScenario.node[13].appl rxPackets_CCH_91 0
scalar SlicingScenario.node[13].appl rxNeighborPackets_CCH_91 0
scalar SlicingScenario.node[13].appl meanDelay_CCH_91 0
scalar SlicingScenario.node[13].appl meanJitter_CCH_91 0
scalar SlicingScenario.node[13].appl meanRxPacketSize_CCH_91 0
scalar SlicingScenario.node[13].appl meanTxPacketSize_CCH_91 0
scalar SlicingScenario.node[13].appl meanRxThroughput_CCH_91 0
scalar SlicingScenario.node[13].appl meanTxThroughput_CCH_91 0
scalar SlicingScenario.node[13].appl rxTimeOfService_CCH_91 0
scalar SlicingScenario.node[13].appl txTimeOfService_CCH_91 0
scalar SlicingScenario.node[13].appl txPackets_SCH_40_91 0
scalar SlicingScenario.node[13].appl rxPackets_SCH_40_91 144
scalar SlicingScenario.node[13].appl rxNeighborPackets_SCH_40_91 1482
scalar SlicingScenario.node[13].appl meanDelay_SCH_40_91 52.696677311661
scalar SlicingScenario.node[13].appl meanJitter_SCH_40_91 0.543291704216
scalar SlicingScenario.node[13].appl meanRxPacketSize_SCH_40_91 1510
scalar SlicingScenario.node[13].appl meanTxPacketSize_SCH_40_91 0
scalar SlicingScenario.node[13].appl meanRxThroughput_SCH_40_91 32580.603999498
scalar SlicingScenario.node[13].appl meanTxThroughput_SCH_40_91 0
scalar SlicingScenario.node[13].appl rxTimeOfService_SCH_40_91 53.391275374354
scalar SlicingScenario.node[13].appl txTimeOfService_SCH_40_91 0
scalar SlicingScenario.node[13].nic.phy80211p busyTime 0.38164902127662
scalar SlicingScenario.node[13].nic.phy80211p ncollisions 0
scalar SlicingScenario.node[13].nic.phy80211p UnderSensitivityPackets 1493
scalar SlicingScenario.node[13].nic.mac1609_4 ReceivedUnicastPackets_CCH 0
scalar SlicingScenario.node[13].nic.mac1609_4 ReceivedBroadcasts_CCH 198
scalar SlicingScenario.node[13].nic.mac1609_4 SentPackets_CCH 0
scalar SlicingScenario.node[13].nic.mac1609_4 SentAcknowledgements_CCH 0
scalar SlicingScenario.node[13].nic.mac1609_4 SNIRLostPackets_CCH 0
scalar SlicingScenario.node[13].nic.mac1609_4 RXTXLostPackets_CCH 0
scalar SlicingScenario.node[13].nic.mac1609_4 TotalLostPackets_CCH 0
scalar SlicingScenario.node[13].nic.mac1609_4 DroppedPacketsInMac_CCH 0
scalar SlicingScenario.node[13].nic.mac1609_4 TooLittleTime_CCH 0
scalar SlicingScenario.node[13].nic.mac1609_4 TimesIntoBackoff_CCH 0
scalar SlicingScenario.node[13].nic.mac1609_4 SlotsBackoff_CCH 0
scalar SlicingScenario.node[13].nic.mac1609_4 NumInternalContention_CCH 0
scalar SlicingScenario.node[13].nic.mac1609_4 RemainingPacketsInEDCA_CCH 0
scalar SlicingScenario.node[13].nic.mac1609_4 totalBusyTime_CCH 0.764506780711
scalar SlicingScenario.node[13].nic.mac1609_4 ReceivedUnicastPackets_SCH 0
scalar SlicingScenario.node[13].nic.mac1609_4 ReceivedBroadcasts_SCH 17951
scalar SlicingScenario.node[13].nic.mac1609_4 SentPackets_SCH 0
scalar SlicingScenario.node[13].nic.mac1609_4 SentAcknowledgements_SCH 0
scalar SlicingScenario.node[13].nic.mac1609_4 SNIRLostPackets_SCH 0
scalar SlicingScenario.node[13].nic.mac1609_4 RXTXLostPackets_SCH 0
scalar SlicingScenario.node[13].nic.mac1609_4 TotalLostPackets_SCH 0
scalar SlicingScenario.node[13].nic.mac1609_4 DroppedPacketsInMac_SCH 0
scalar SlicingScenario.node[13].nic.mac1609_4 TooLittleTime_SCH 0
scalar SlicingScenario.node[13].nic.mac1609_4 TimesIntoBackoff_SCH 0
scalar SlicingScenario.node[13].nic.mac1609_4 SlotsBackoff_SCH 0
scalar SlicingScenario.node[13].nic.mac1609_4 NumInternalContention_SCH 0
scalar SlicingScenario.node[13].nic.mac1609_4 RemainingPacketsInEDCA_SCH 0
scalar SlicingScenario.node[13].nic.mac1609_4 totalBusyTime_SCH 35.485104
scalar SlicingScenario.node[13].veinsmobility startTime 5
scalar SlicingScenario.node[13].veinsmobility totalTime 93
scalar SlicingScenario.node[13].veinsmobility stopTime 99
scalar SlicingScenario.node[13].veinsmobility minSpeed 5.6244931045612
scalar SlicingScenario.node[13].veinsmobility maxSpeed 11.103735481985
scalar SlicingScenario.node[13].veinsmobility totalDistance 975.90517433168
scalar SlicingScenario.node[13].veinsmobility totalCO2Emission 171.47073134112
scalar SlicingScenario.node[12].appl txPackets_CCH_85 0
scalar SlicingScenario.node[12].appl rxPackets_CCH_85 0
scalar SlicingScenario.node[12].appl rxNeighborPackets_CCH_85 0
scalar SlicingScenario.node[12].appl meanDelay_CCH_85 0
scalar SlicingScenario.node[12].appl meanJitter_CCH_85 0
scalar SlicingScenario.node[12].appl meanRxPacketSize_CCH_85 0
scalar SlicingScenario.node[12].appl meanTxPacketSize_CCH_85 0
scalar SlicingScenario.node[12].appl meanRxThroughput_CCH_85 0
scalar SlicingScenario.node[12].appl meanTxThroughput_CCH_85 0
scalar SlicingScenario.node[12].appl rxTimeOfService_CCH_85 0
scalar SlicingScenario.node[12].appl txTimeOfService_CCH_85 0
scalar SlicingScenario.node[12].appl txPackets_SCH_40_85 0
scalar SlicingScenario.node[12].appl rxPackets_SCH_40_85 127
scalar SlicingScenario.node[12].appl rxNeighborPackets_SCH_40_85 1486
scalar SlicingScenario.node[12].appl meanDelay_SCH_40_85 55.445238381418
scalar SlicingScenario.node[12].appl meanJitter_SCH_40_85 0.616794102783
scalar SlicingScenario.node[12].appl meanRxPacketSize_SCH_40_85 1510
scalar SlicingScenario.node[12].appl meanTxPacketSize_SCH_40_85 0
scalar SlicingScenario.node[12].appl meanRxThroughput_SCH_40_85 31952.064710892
scalar SlicingScenario.node[12].appl meanTxThroughput_SCH_40_85 0
scalar SlicingScenario.node[12].appl rxTimeOfService_SCH_40_85 48.014424541305
scalar SlicingScenario.node[12].appl txTimeOfService_SCH_40_85 0
scalar SlicingScenario.node[12].nic.phy80211p busyTime 0.37713548936173
scalar SlicingScenario.node[12].nic.phy80211p ncollisions 0
scalar SlicingScenario.node[12].nic.phy80211p UnderSensitivityPackets 1708
scalar SlicingScenario.node[12].nic.mac1609_4 ReceivedUnicastPackets_CCH 0
scalar SlicingScenario.node[12].nic.mac1609_4 ReceivedBroadcasts_CCH 137
scalar SlicingScenario.node[12].nic.mac1609_4 SentPackets_CCH 0
scalar SlicingScenario.node[12].nic.mac1609_4 SentAcknowledgements_CCH 0
scalar SlicingScenario.node[12].nic.mac1609_4 SNIRLostPackets_CCH 0
scalar SlicingScenario.node[12].nic.mac1609_4 RXTXLostPackets_CCH 0
scalar SlicingScenario.node[12].nic.mac1609_4 TotalLostPackets_CCH 0
scalar SlicingScenario.node[12].nic.mac1609_4 DroppedPacketsInMac_CCH 0
scalar SlicingScenario.node[12].nic.mac1609_4 TooLittleTime_CCH 0
scalar SlicingScenario.node[12].nic.mac1609_4 TimesIntoBackoff_CCH 0
scalar SlicingScenario.node[12].nic.mac1609_4 SlotsBackoff_CCH 0
scalar SlicingScenario.node[12].nic.mac1609_4 NumInternalContention_CCH 0
scalar SlicingScenario.node[12].nic.mac1609_4 RemainingPacketsInEDCA_CCH 0
scalar SlicingScenario.node[12].nic.mac1609_4 totalBusyTime_CCH 0.533773297964
scalar SlicingScenario.node[12].nic.mac1609_4 ReceivedUnicastPackets_SCH 0
scalar SlicingScenario.node[12].nic.mac1609_4 ReceivedBroadcasts_SCH 17797
scalar SlicingScenario.node[12].nic.mac1609_4 SentPackets_SCH 0
scalar SlicingScenario.node[12].nic.mac1609_4 SentAcknowledgements_SCH 0
scalar SlicingScenario.node[12].nic.mac1609_4 SNIRLostPackets_SCH 0
scalar SlicingScenario.node[12].nic.mac1609_4 RXTXLostPackets_SCH 0
scalar SlicingScenario.node[12].nic.mac1609_4 TotalLostPackets_SCH 0
scalar SlicingScenario.node[12].nic.mac1609_4 DroppedPacketsInMac_SCH 0
scalar SlicingScenario.node[12].nic.mac1609_4 TooLittleTime_SCH 0
scalar SlicingScenario.node[12].nic.mac1609_4 TimesIntoBackoff_SCH 0
scalar SlicingScenario.node[12].nic.mac1609_4 SlotsBackoff_SCH 0
scalar SlicingScenario.node[12].nic.mac1609_4 NumInternalContention_SCH 0
scalar SlicingScenario.node[12].nic.mac1609_4 RemainingPacketsInEDCA_SCH 0
scalar SlicingScenario.node[12].nic.mac1609_4 totalBusyTime_SCH 35.179344
scalar SlicingScenario.node[12].veinsmobility startTime 5
scalar SlicingScenario.node[12].veinsmobility totalTime 93
scalar SlicingScenario.node[12].veinsmobility stopTime 99
scalar SlicingScenario.node[12].veinsmobility minSpeed 5.0283166416148
scalar SlicingScenario.node[12].veinsmobility maxSpeed 11.100901637822
scalar SlicingScenario.node[12].veinsmobility totalDistance 976.9652984737
scalar SlicingScenario.node[12].veinsmobility totalCO2Emission 173.32273977175
scalar SlicingScenario.node[15].appl txPackets_CCH_103 0
scalar SlicingScenario.node[15].appl rxPackets_CCH_103 0
scalar SlicingScenario.node[15].appl rxNeighborPackets_CCH_103 0
scalar SlicingScenario.node[15].appl meanDelay_CCH_103 0
scalar SlicingScenario.node[15].appl meanJitter_CCH_103 0
scalar SlicingScenario.node[15].appl meanRxPacketSize_CCH_103 0
scalar SlicingScenario.node[15].appl meanTxPacketSize_CCH_103 0
scalar SlicingScenario.node[15].appl meanRxThroughput_CCH_103 0
scalar SlicingScenario.node[15].appl meanTxThroughput_CCH_103 0
scalar SlicingScenario.node[15].appl rxTimeOfService_CCH_103 0
scalar SlicingScenario.node[15].appl txTimeOfService_CCH_103 0
scalar SlicingScenario.node[15].appl txPackets_SCH_41_103 0
scalar SlicingScenario.node[15].appl rxPackets_SCH_41_103 1029
scalar SlicingScenario.node[15].appl rxNeighborPackets_SCH_41_103 15877
scalar SlicingScenario.node[15].appl meanDelay_SCH_41_103 53.517228375958
scalar SlicingScenario.node[15].appl meanJitter_SCH_41_103 0.07638725003
scalar SlicingScenario.node[15].appl meanRxPacketSize_SCH_41_103 1438
scalar SlicingScenario.node[15].appl meanTxPacketSize_SCH_41_103 0
scalar SlicingScenario.node[15].appl meanRxThroughput_SCH_41_103 220888.43274985
scalar SlicingScenario.node[15].appl meanTxThroughput_SCH_41_103 0
scalar SlicingScenario.node[15].appl rxTimeOfService_SCH_41_103 53.612223386144
scalar SlicingScenario.node[15].appl txTimeOfService_SCH_41_103 0
scalar SlicingScenario.node[15].nic.phy80211p busyTime 0.38659907368422
scalar SlicingScenario.node[15].nic.phy80211p ncollisions 0
scalar SlicingScenario.node[15].nic.phy80211p UnderSensitivityPackets 1279
scalar SlicingScenario.node[15].nic.mac1609_4 ReceivedUnicastPackets_CCH 0
scalar SlicingScenario.node[15].nic.mac1609_4 ReceivedBroadcasts_CCH 80
scalar SlicingScenario.node[15].nic.mac1609_4 SentPackets_CCH 0
scalar SlicingScenario.node[15].nic.mac1609_4 SentAcknowledgements_CCH 0
scalar SlicingScenario.node[15].nic.mac1609_4 SNIRLostPackets_CCH 0
scalar SlicingScenario.node[15].nic.mac1609_4 RXTXLostPackets_CCH 0
scalar SlicingScenario.node[15].nic.mac1609_4 TotalLostPackets_CCH 0
scalar SlicingScenario.node[15].nic.mac1609_4 DroppedPacketsInMac_CCH 0
scalar SlicingScenario.node[15].nic.mac1609_4 TooLittleTime_CCH 0
scalar SlicingScenario.node[15].nic.mac1609_4 TimesIntoBackoff_CCH 0
scalar SlicingScenario.node[15].nic.mac1609_4 SlotsBackoff_CCH 0
scalar SlicingScenario.node[15].nic.mac1609_4 NumInternalContention_CCH 0
scalar SlicingScenario.node[15].nic.mac1609_4 RemainingPacketsInEDCA_CCH 0
scalar SlicingScenario.node[15].nic.mac1609_4 totalBusyTime_CCH 0.310906974325
scalar SlicingScenario.node[15].nic.mac1609_4 ReceivedUnicastPackets_SCH 0
scalar SlicingScenario.node[15].nic.mac1609_4 ReceivedBroadcasts_SCH 18500
scalar SlicingScenario.node[15].nic.mac1609_4 SentPackets_SCH 0
scalar SlicingScenario.node[15].nic.mac1609_4 SentAcknowledgements_SCH 0
scalar SlicingScenario.node[15].nic.mac1609_4 SNIRLostPackets_SCH 0
scalar SlicingScenario.node[15].nic.mac1609_4 RXTXLostPackets_SCH 0
scalar SlicingScenario.node[15].nic.mac1609_4 TotalLostPackets_SCH 0
scalar SlicingScenario.node[15].nic.mac1609_4 DroppedPacketsInMac_SCH 0
scalar SlicingScenario.node[15].nic.mac1609_4 TooLittleTime_SCH 0
scalar SlicingScenario.node[15].nic.mac1609_4 TimesIntoBackoff_SCH 0
scalar SlicingScenario.node[15].nic.mac1609_4 SlotsBackoff_SCH 0
scalar SlicingScenario.node[15].nic.mac1609_4 NumInternalContention_SCH 0
scalar SlicingScenario.node[15].nic.mac1609_4 RemainingPacketsInEDCA_SCH 0
scalar SlicingScenario.node[15].nic.mac1609_4 totalBusyTime_SCH 36.570528
scalar SlicingScenario.node[15].veinsmobility startTime 5
scalar SlicingScenario.node[15].veinsmobility totalTime 94
scalar SlicingScenario.node[15].veinsmobility stopTime 100
scalar SlicingScenario.node[15].veinsmobility minSpeed 3.964567620649
scalar SlicingScenario.node[15].veinsmobility maxSpeed 11.10760761892
scalar SlicingScenario.node[15].veinsmobility totalDistance 979.48483732419
scalar SlicingScenario.node[15].veinsmobility totalCO2Emission 176.05141984292
scalar SlicingScenario.node[16].appl txPackets_CCH_109 0
scalar SlicingScenario.node[16].appl rxPackets_CCH_109 0
scalar SlicingScenario.node[16].appl rxNeighborPackets_CCH_109 0
scalar SlicingScenario.node[16].appl meanDelay_CCH_109 0
scalar SlicingScenario.node[16].appl meanJitter_CCH_109 0
scalar SlicingScenario.node[16].appl meanRxPacketSize_CCH_109 0
scalar SlicingScenario.node[16].appl meanTxPacketSize_CCH_109 0
scalar SlicingScenario.node[16].appl meanRxThroughput_CCH_109 0
scalar SlicingScenario.node[16].appl meanTxThroughput_CCH_109 0
scalar SlicingScenario.node[16].appl rxTimeOfService_CCH_109 0
scalar SlicingScenario.node[16].appl txTimeOfService_CCH_109 0
scalar SlicingScenario.node[16].appl txPackets_SCH_40_109 0
scalar SlicingScenario.node[16].appl rxPackets_SCH_40_109 43
scalar SlicingScenario.node[16].appl rxNeighborPackets_SCH_40_109 1627
scalar SlicingScenario.node[16].appl meanDelay_SCH_40_109 71.683479052817
scalar SlicingScenario.node[16].appl meanJitter_SCH_40_109 1.886787991649
scalar SlicingScenario.node[16].appl meanRxPacketSize_SCH_40_109 1510
scalar SlicingScenario.node[16].appl meanTxPacketSize_SCH_40_109 0
scalar SlicingScenario.node[16].appl meanRxThroughput_SCH_40_109 31220.485915837
scalar SlicingScenario.node[16].appl meanTxThroughput_SCH_40_109 0
scalar SlicingScenario.node[16].appl rxTimeOfService_SCH_40_109 16.637793575676
scalar SlicingScenario.node[16].appl txTimeOfService_SCH_40_109 0
scalar SlicingScenario.node[16].nic.phy80211p busyTime 0.39070468085107
scalar SlicingScenario.node[16].nic.phy80211p ncollisions 0
scalar SlicingScenario.node[16].nic.phy80211p UnderSensitivityPackets 1495
scalar SlicingScenario.node[16].nic.mac1609_4 ReceivedUnicastPackets_CCH 0
scalar SlicingScenario.node[16].nic.mac1609_4 ReceivedBroadcasts_CCH 46
scalar SlicingScenario.node[16].nic.mac1609_4 SentPackets_CCH 0
scalar SlicingScenario.node[16].nic.mac1609_4 SentAcknowledgements_CCH 0
scalar SlicingScenario.node[16].nic.mac1609_4 SNIRLostPackets_CCH 0
scalar SlicingScenario.node[16].nic.mac1609_4 RXTXLostPackets_CCH 0
scalar SlicingScenario.node[16].nic.mac1609_4 TotalLostPackets_CCH 0
scalar SlicingScenario.node[16].nic.mac1609_4 DroppedPacketsInMac_CCH 0
scalar SlicingScenario.node[16].nic.mac1609_4 TooLittleTime_CCH 0
scalar SlicingScenario.node[16].nic.mac1609_4 TimesIntoBackoff_CCH 0
scalar SlicingScenario.node[16].nic.mac1609_4 SlotsBackoff_CCH 0
scalar SlicingScenario.node[16].nic.mac1609_4 NumInternalContention_CCH 0
scalar SlicingScenario.node[16].nic.mac1609_4 RemainingPacketsInEDCA_CCH 0
scalar SlicingScenario.node[16].nic.mac1609_4 totalBusyTime_CCH 0.179884102412
scalar SlicingScenario.node[16].nic.mac1609_4 ReceivedUnicastPackets_SCH 0
scalar SlicingScenario.node[16].nic.mac1609_4 ReceivedBroadcasts_SCH 18534
scalar SlicingScenario.node[16].nic.mac1609_4 SentPackets_SCH 0
scalar SlicingScenario.node[16].nic.mac1609_4 SentAcknowledgements_SCH 0
scalar SlicingScenario.node[16].nic.mac1609_4 SNIRLostPackets_SCH 0
scalar SlicingScenario.node[16].nic.mac1609_4 RXTXLostPackets_SCH 0
scalar SlicingScenario.node[16].nic.mac1609_4 TotalLostPackets_SCH 0
scalar SlicingScenario.node[16].nic.mac1609_4 DroppedPacketsInMac_SCH 0
scalar SlicingScenario.node[16].nic.mac1609_4 TooLittleTime_SCH 0
scalar SlicingScenario.node[16].nic.mac1609_4 TimesIntoBackoff_SCH 0
scalar SlicingScenario.node[16].nic.mac1609_4 SlotsBackoff_SCH 0
scalar SlicingScenario.node[16].nic.mac1609_4 NumInternalContention_SCH 0
scalar SlicingScenario.node[16].nic.mac1609_4 RemainingPacketsInEDCA_SCH 0
scalar SlicingScenario.node[16].nic.mac1609_4 totalBusyTime_SCH 36.636
scalar SlicingScenario.node[16].veinsmobility startTime 7
scalar SlicingScenario.node[16].veinsmobility totalTime 93
scalar SlicingScenario.node[16].veinsmobility stopTime 101
scalar SlicingScenario.node[16].veinsmobility minSpeed 5.5101596610718
scalar SlicingScenario.node[16].veinsmobility maxSpeed 11.100355285583
scalar SlicingScenario.node[16].veinsmobility totalDistance 977.51459634556
scalar SlicingScenario.node[16].veinsmobility totalCO2Emission 172.24622294907
scalar SlicingScenario.node[14].appl txPackets_CCH_97 0
scalar SlicingScenario.node[14].appl rxPackets_CCH_97 0
scalar SlicingScenario.node[14].appl rxNeighborPackets_CCH_97 0
scalar SlicingScenario.node[14].appl meanDelay_CCH_97 0
scalar SlicingScenario.node[14].appl meanJitter_CCH_97 0
scalar SlicingScenario.node[14].appl meanRxPacketSize_CCH_97 0
scalar SlicingScenario.node[14].appl meanTxPacketSize_CCH_97 0
scalar SlicingScenario.node[14].appl meanRxThroughput_CCH_97 0
scalar SlicingScenario.node[14].appl meanTxThroughput_CCH_97 0
scalar SlicingScenario.node[14].appl rxTimeOfService_CCH_97 0
scalar SlicingScenario.node[14].appl txTimeOfService_CCH_97 0
scalar SlicingScenario.node[14].appl txPackets_SCH_40_97 0
scalar SlicingScenario.node[14].appl rxPackets_SCH_40_97 139
scalar SlicingScenario.node[14].appl rxNeighborPackets_SCH_40_97 1560
scalar SlicingScenario.node[14].appl meanDelay_SCH_40_97 56.357041842557
scalar SlicingScenario.node[14].appl meanJitter_SCH_40_97 0.582624916214
scalar SlicingScenario.node[14].appl meanRxPacketSize_SCH_40_97 1510
scalar SlicingScenario.node[14].appl meanTxPacketSize_SCH_40_97 0
scalar SlicingScenario.node[14].appl meanRxThroughput_SCH_40_97 32610.805726711
scalar SlicingScenario.node[14].appl meanTxThroughput_SCH_40_97 0
scalar SlicingScenario.node[14].appl rxTimeOfService_SCH_40_97 51.489681489981
scalar SlicingScenario.node[14].appl txTimeOfService_SCH_40_97 0
scalar SlicingScenario.node[14].nic.phy80211p busyTime 0.38293063917526
scalar SlicingScenario.node[14].nic.phy80211p ncollisions 0
scalar SlicingScenario.node[14].nic.phy80211p UnderSensitivityPackets 1498
scalar SlicingScenario.node[14].nic.mac1609_4 ReceivedUnicastPackets_CCH 0
scalar SlicingScenario.node[14].nic.mac1609_4 ReceivedBroadcasts_CCH 306
scalar SlicingScenario.node[14].nic.mac1609_4 SentPackets_CCH 0
scalar SlicingScenario.node[14].nic.mac1609_4 SentAcknowledgements_CCH 0
scalar SlicingScenario.node[14].nic.mac1609_4 SNIRLostPackets_CCH 0
scalar SlicingScenario.node[14].nic.mac1609_4 RXTXLostPackets_CCH 0
scalar SlicingScenario.node[14].nic.mac1609_4 TotalLostPackets_CCH 0
scalar SlicingScenario.node[14].nic.mac1609_4 DroppedPacketsInMac_CCH 0
scalar SlicingScenario.node[14].nic.mac1609_4 TooLittleTime_CCH 0
scalar SlicingScenario.node[14].nic.mac1609_4 TimesIntoBackoff_CCH 0
scalar SlicingScenario.node[14].nic.mac1609_4 SlotsBackoff_CCH 0
scalar SlicingScenario.node[14].nic.mac1609_4 NumInternalContention_CCH 0
scalar SlicingScenario.node[14].nic.mac1609_4 RemainingPacketsInEDCA_CCH 0
scalar SlicingScenario.node[14].nic.mac1609_4 totalBusyTime_CCH 1.181113382279
scalar SlicingScenario.node[14].nic.mac1609_4 ReceivedUnicastPackets_SCH 0
scalar SlicingScenario.node[14].nic.mac1609_4 ReceivedBroadcasts_SCH 18485
scalar SlicingScenario.node[14].nic.mac1609_4 SentPackets_SCH 0
scalar SlicingScenario.node[14].nic.mac1609_4 SentAcknowledgements_SCH 0
scalar SlicingScenario.node[14].nic.mac1609_4 SNIRLostPackets_SCH 0
scalar SlicingScenario.node[14].nic.mac1609_4 RXTXLostPackets_SCH 0
scalar SlicingScenario.node[14].nic.mac1609_4 TotalLostPackets_SCH 0
scalar SlicingScenario.node[14].nic.mac1609_4 DroppedPacketsInMac_SCH 0
scalar SlicingScenario.node[14].nic.mac1609_4 TooLittleTime_SCH 0
scalar SlicingScenario.node[14].nic.mac1609_4 TimesIntoBackoff_SCH 0
scalar SlicingScenario.node[14].nic.mac1609_4 SlotsBackoff_SCH 0
scalar SlicingScenario.node[14].nic.mac1609_4 NumInternalContention_SCH 0
scalar SlicingScenario.node[14].nic.mac1609_4 RemainingPacketsInEDCA_SCH 0
scalar SlicingScenario.node[14].nic.mac1609_4 totalBusyTime_SCH 36.538896
scalar SlicingScenario.node[14].veinsmobility startTime 5
scalar SlicingScenario.node[14].veinsmobility totalTime 96
scalar SlicingScenario.node[14].veinsmobility stopTime 102
scalar SlicingScenario.node[14].veinsmobility minSpeed 3.012176864191
scalar SlicingScenario.node[14].veinsmobility maxSpeed 11.099604962175
scalar SlicingScenario.node[14].veinsmobility totalDistance 983.40530596679
scalar SlicingScenario.node[14].veinsmobility totalCO2Emission 178.89674150411
scalar SlicingScenario.node[17].appl txPackets_CCH_115 0
scalar SlicingScenario.node[17].appl rxPackets_CCH_115 0
scalar SlicingScenario.node[17].appl rxNeighborPackets_CCH_115 0
scalar SlicingScenario.node[17].appl meanDelay_CCH_115 0
scalar SlicingScenario.node[17].appl meanJitter_CCH_115 0
scalar SlicingScenario.node[17].appl meanRxPacketSize_CCH_115 0
scalar SlicingScenario.node[17].appl meanTxPacketSize_CCH_115 0
scalar SlicingScenario.node[17].appl meanRxThroughput_CCH_115 0
scalar SlicingScenario.node[17].appl meanTxThroughput_CCH_115 0
scalar SlicingScenario.node[17].appl rxTimeOfService_CCH_115 0
scalar SlicingScenario.node[17].appl txTimeOfService_CCH_115 0
scalar SlicingScenario.node[17].appl txPackets_SCH_40_115 0
scalar SlicingScenario.node[17].appl rxPackets_SCH_40_115 44
scalar SlicingScenario.node[17].appl rxNeighborPackets_SCH_40_115 1655
scalar SlicingScenario.node[17].appl meanDelay_SCH_40_115 72.651162233566
scalar SlicingScenario.node[17].appl meanJitter_SCH_40_115 1.869740117977
scalar SlicingScenario.node[17].appl meanRxPacketSize_SCH_40_115 1510
scalar SlicingScenario.node[17].appl meanTxPacketSize_SCH_40_115 0
scalar SlicingScenario.node[17].appl meanRxThroughput_SCH_40_115 31040.711915829
scalar SlicingScenario.node[17].appl meanTxThroughput_SCH_40_115 0
scalar SlicingScenario.node[17].appl rxTimeOfService_SCH_40_115 17.123318609486
scalar SlicingScenario.node[17].appl txTimeOfService_SCH_40_115 0
scalar SlicingScenario.node[17].nic.phy80211p busyTime 0.39099233684211
scalar SlicingScenario.node[17].nic.phy80211p ncollisions 0
scalar SlicingScenario.node[17].nic.phy80211p UnderSensitivityPackets 1498
scalar SlicingScenario.node[17].nic.mac1609_4 ReceivedUnicastPackets_CCH 0
scalar SlicingScenario.node[17].nic.mac1609_4 ReceivedBroadcasts_CCH 0
scalar SlicingScenario.node[17].nic.mac1609_4 SentPackets_CCH 0
scalar SlicingScenario.node[17].nic.mac1609_4 SentAcknowledgements_CCH 0
scalar SlicingScenario.node[17].nic.mac1609_4 SNIRLostPackets_CCH 0
scalar SlicingScenario.node[17].nic.mac1609_4 RXTXLostPackets_CCH 0
scalar SlicingScenario.node[17].nic.mac1609_4 TotalLostPackets_CCH 0
scalar SlicingScenario.node[17].nic.mac1609_4 DroppedPacketsInMac_CCH 0
scalar SlicingScenario.node[17].nic.mac1609_4 TooLittleTime_CCH 0
scalar SlicingScenario.node[17].nic.mac1609_4 TimesIntoBackoff_CCH 0
scalar SlicingScenario.node[17].nic.mac1609_4 SlotsBackoff_CCH 0
scalar SlicingScenario.node[17].nic.mac1609_4 NumInternalContention_CCH 0
scalar SlicingScenario.node[17].nic.mac1609_4 RemainingPacketsInEDCA_CCH 0
scalar SlicingScenario.node[17].nic.mac1609_4 totalBusyTime_CCH 0
scalar SlicingScenario.node[17].nic.mac1609_4 ReceivedUnicastPackets_SCH 0
scalar SlicingScenario.node[17].nic.mac1609_4 ReceivedBroadcasts_SCH 18791
scalar SlicingScenario.node[17].nic.mac1609_4 SentPackets_SCH 0
scalar SlicingScenario.node[17].nic.mac1609_4 SentAcknowledgements_SCH 0
scalar SlicingScenario.node[17].nic.mac1609_4 SNIRLostPackets_SCH 0
scalar SlicingScenario.node[17].nic.mac1609_4 RXTXLostPackets_SCH 0
scalar SlicingScenario.node[17].nic.mac1609_4 TotalLostPackets_SCH 0
scalar SlicingScenario.node[17].nic.mac1609_4 DroppedPacketsInMac_SCH 0
scalar SlicingScenario.node[17].nic.mac1609_4 TooLittleTime_SCH 0
scalar SlicingScenario.node[17].nic.mac1609_4 TimesIntoBackoff_SCH 0
scalar SlicingScenario.node[17].nic.mac1609_4 SlotsBackoff_SCH 0
scalar SlicingScenario.node[17].nic.mac1609_4 NumInternalContention_SCH 0
scalar SlicingScenario.node[17].nic.mac1609_4 RemainingPacketsInEDCA_SCH 0
scalar SlicingScenario.node[17].nic.mac1609_4 totalBusyTime_SCH 37.144272
scalar SlicingScenario.node[17].veinsmobility startTime 7
scalar SlicingScenario.node[17].veinsmobility totalTime 94
scalar SlicingScenario.node[17].veinsmobility stopTime 102
scalar SlicingScenario.node[17].veinsmobility minSpeed 5.1732089820676
scalar SlicingScenario.node[17].veinsmobility maxSpeed 11.098826288609
scalar SlicingScenario.node[17].veinsmobility totalDistance 983.31495446018
scalar SlicingScenario.node[17].veinsmobility totalCO2Emission 173.447807507
scalar SlicingScenario.node[20].appl txPackets_CCH_133 0
scalar SlicingScenario.node[20].appl rxPackets_CCH_133 0
scalar SlicingScenario.node[20].appl rxNeighborPackets_CCH_133 0
scalar SlicingScenario.node[20].appl meanDelay_CCH_133 0
scalar SlicingScenario.node[20].appl meanJitter_CCH_133 0
scalar SlicingScenario.node[20].appl meanRxPacketSize_CCH_133 0
scalar SlicingScenario.node[20].appl meanTxPacketSize_CCH_133 0
scalar SlicingScenario.node[20].appl meanRxThroughput_CCH_133 0
scalar SlicingScenario.node[20].appl meanTxThroughput_CCH_133 0
scalar SlicingScenario.node[20].appl rxTimeOfService_CCH_133 0
scalar SlicingScenario.node[20].appl txTimeOfService_CCH_133 0
scalar SlicingScenario.node[20].appl txPackets_SCH_41_133 0
scalar SlicingScenario.node[20].appl rxPackets_SCH_41_133 0
scalar SlicingScenario.node[20].appl rxNeighborPackets_SCH_41_133 16999
scalar SlicingScenario.node[20].appl meanDelay_SCH_41_133 0
scalar SlicingScenario.node[20].appl meanJitter_SCH_41_133 0
scalar SlicingScenario.node[20].appl meanRxPacketSize_SCH_41_133 0
scalar SlicingScenario.node[20].appl meanTxPacketSize_SCH_41_133 0
scalar SlicingScenario.node[20].appl meanRxThroughput_SCH_41_133 0
scalar SlicingScenario.node[20].appl meanTxThroughput_SCH_41_133 0
scalar SlicingScenario.node[20].appl rxTimeOfService_SCH_41_133 0
scalar SlicingScenario.node[20].appl txTimeOfService_SCH_41_133 0
scalar SlicingScenario.node[20].nic.phy80211p busyTime 0.39246382978724
scalar SlicingScenario.node[20].nic.phy80211p ncollisions 0
scalar SlicingScenario.node[20].nic.phy80211p UnderSensitivityPackets 1501
scalar SlicingScenario.node[20].nic.mac1609_4 ReceivedUnicastPackets_CCH 0
scalar SlicingScenario.node[20].nic.mac1609_4 ReceivedBroadcasts_CCH 319
scalar SlicingScenario.node[20].nic.mac1609_4 SentPackets_CCH 0
scalar SlicingScenario.node[20].nic.mac1609_4 SentAcknowledgements_CCH 0
scalar SlicingScenario.node[20].nic.mac1609_4 SNIRLostPackets_CCH 0
scalar SlicingScenario.node[20].nic.mac1609_4 RXTXLostPackets_CCH 0
scalar SlicingScenario.node[20].nic.mac1609_4 TotalLostPackets_CCH 0
scalar SlicingScenario.node[20].nic.mac1609_4 DroppedPacketsInMac_CCH 0
scalar SlicingScenario.node[20].nic.mac1609_4 TooLittleTime_CCH 0
scalar SlicingScenario.node[20].nic.mac1609_4 TimesIntoBackoff_CCH 0
scalar SlicingScenario.node[20].nic.mac1609_4 SlotsBackoff_CCH 0
scalar SlicingScenario.node[20].nic.mac1609_4 NumInternalContention_CCH 0
scalar SlicingScenario.node[20].nic.mac1609_4 RemainingPacketsInEDCA_CCH 0
scalar SlicingScenario.node[20].nic.mac1609_4 totalBusyTime_CCH 1.221360133983
scalar SlicingScenario.node[20].nic.mac1609_4 ReceivedUnicastPackets_SCH 0
scalar SlicingScenario.node[20].nic.mac1609_4 ReceivedBroadcasts_SCH 18345
scalar SlicingScenario.node[20].nic.mac1609_4 SentPackets_SCH 0
scalar SlicingScenario.node[20].nic.mac1609_4 SentAcknowledgements_SCH 0
scalar SlicingScenario.node[20].nic.mac1609_4 SNIRLostPackets_SCH 0
scalar SlicingScenario.node[20].nic.mac1609_4 RXTXLostPackets_SCH 0
scalar SlicingScenario.node[20].nic.mac1609_4 TotalLostPackets_SCH 0
scalar SlicingScenario.node[20].nic.mac1609_4 DroppedPacketsInMac_SCH 0
scalar SlicingScenario.node[20].nic.mac1609_4 TooLittleTime_SCH 0
scalar SlicingScenario.node[20].nic.mac1609_4 TimesIntoBackoff_SCH 0
scalar SlicingScenario.node[20].nic.mac1609_4 SlotsBackoff_SCH 0
scalar SlicingScenario.node[20].nic.mac1609_4 NumInternalContention_SCH 0
scalar SlicingScenario.node[20].nic.mac1609_4 RemainingPacketsInEDCA_SCH 0
scalar SlicingScenario.node[20].nic.mac1609_4 totalBusyTime_SCH 36.258672
scalar SlicingScenario.node[20].veinsmobility startTime 9
scalar SlicingScenario.node[20].veinsmobility totalTime 93
scalar SlicingScenario.node[20].veinsmobility stopTime 103
[...]
scalar SlicingScenario.rsu[0].appl meanRxPacketSize_SCH_41_1915 0
scalar SlicingScenario.rsu[0].appl meanTxPacketSize_SCH_41_1915 0
scalar SlicingScenario.rsu[0].appl meanRxThroughput_SCH_41_1915 0
scalar SlicingScenario.rsu[0].appl meanTxThroughput_SCH_41_1915 0
scalar SlicingScenario.rsu[0].appl rxTimeOfService_SCH_41_1915 0
scalar SlicingScenario.rsu[0].appl txTimeOfService_SCH_41_1915 0
scalar SlicingScenario.rsu[0].appl txPackets_SCH_41_1921 0
scalar SlicingScenario.rsu[0].appl rxPackets_SCH_41_1921 0
scalar SlicingScenario.rsu[0].appl rxNeighborPackets_SCH_41_1921 0
scalar SlicingScenario.rsu[0].appl meanDelay_SCH_41_1921 0
scalar SlicingScenario.rsu[0].appl meanJitter_SCH_41_1921 0
scalar SlicingScenario.rsu[0].appl meanRxPacketSize_SCH_41_1921 0
scalar SlicingScenario.rsu[0].appl meanTxPacketSize_SCH_41_1921 0
scalar SlicingScenario.rsu[0].appl meanRxThroughput_SCH_41_1921 0
scalar SlicingScenario.rsu[0].appl meanTxThroughput_SCH_41_1921 0
scalar SlicingScenario.rsu[0].appl rxTimeOfService_SCH_41_1921 0
scalar SlicingScenario.rsu[0].appl txTimeOfService_SCH_41_1921 0
scalar SlicingScenario.rsu[0].appl txPackets_SCH_41_1933 0
scalar SlicingScenario.rsu[0].appl rxPackets_SCH_41_1933 0
scalar SlicingScenario.rsu[0].appl rxNeighborPackets_SCH_41_1933 0
scalar SlicingScenario.rsu[0].appl meanDelay_SCH_41_1933 0
scalar SlicingScenario.rsu[0].appl meanJitter_SCH_41_1933 0
scalar SlicingScenario.rsu[0].appl meanRxPacketSize_SCH_41_1933 0
scalar SlicingScenario.rsu[0].appl meanTxPacketSize_SCH_41_1933 0
scalar SlicingScenario.rsu[0].appl meanRxThroughput_SCH_41_1933 0
scalar SlicingScenario.rsu[0].appl meanTxThroughput_SCH_41_1933 0
scalar SlicingScenario.rsu[0].appl rxTimeOfService_SCH_41_1933 0
scalar SlicingScenario.rsu[0].appl txTimeOfService_SCH_41_1933 0
scalar SlicingScenario.rsu[0].appl txPackets_SCH_41_1939 0
scalar SlicingScenario.rsu[0].appl rxPackets_SCH_41_1939 0
scalar SlicingScenario.rsu[0].appl rxNeighborPackets_SCH_41_1939 0
scalar SlicingScenario.rsu[0].appl meanDelay_SCH_41_1939 0
scalar SlicingScenario.rsu[0].appl meanJitter_SCH_41_1939 0
scalar SlicingScenario.rsu[0].appl meanRxPacketSize_SCH_41_1939 0
scalar SlicingScenario.rsu[0].appl meanTxPacketSize_SCH_41_1939 0
scalar SlicingScenario.rsu[0].appl meanRxThroughput_SCH_41_1939 0
scalar SlicingScenario.rsu[0].appl meanTxThroughput_SCH_41_1939 0
scalar SlicingScenario.rsu[0].appl rxTimeOfService_SCH_41_1939 0
scalar SlicingScenario.rsu[0].appl txTimeOfService_SCH_41_1939 0
scalar SlicingScenario.rsu[0].appl txPackets_SCH_41_1945 0
scalar SlicingScenario.rsu[0].appl rxPackets_SCH_41_1945 0
scalar SlicingScenario.rsu[0].appl rxNeighborPackets_SCH_41_1945 0
scalar SlicingScenario.rsu[0].appl meanDelay_SCH_41_1945 0
scalar SlicingScenario.rsu[0].appl meanJitter_SCH_41_1945 0
scalar SlicingScenario.rsu[0].appl meanRxPacketSize_SCH_41_1945 0
scalar SlicingScenario.rsu[0].appl meanTxPacketSize_SCH_41_1945 0
scalar SlicingScenario.rsu[0].appl meanRxThroughput_SCH_41_1945 0
scalar SlicingScenario.rsu[0].appl meanTxThroughput_SCH_41_1945 0
scalar SlicingScenario.rsu[0].appl rxTimeOfService_SCH_41_1945 0
scalar SlicingScenario.rsu[0].appl txTimeOfService_SCH_41_1945 0
scalar SlicingScenario.rsu[0].appl txPackets_SCH_41_1963 0
scalar SlicingScenario.rsu[0].appl rxPackets_SCH_41_1963 0
scalar SlicingScenario.rsu[0].appl rxNeighborPackets_SCH_41_1963 0
scalar SlicingScenario.rsu[0].appl meanDelay_SCH_41_1963 0
scalar SlicingScenario.rsu[0].appl meanJitter_SCH_41_1963 0
scalar SlicingScenario.rsu[0].appl meanRxPacketSize_SCH_41_1963 0
scalar SlicingScenario.rsu[0].appl meanTxPacketSize_SCH_41_1963 0
scalar SlicingScenario.rsu[0].appl meanRxThroughput_SCH_41_1963 0
scalar SlicingScenario.rsu[0].appl meanTxThroughput_SCH_41_1963 0
scalar SlicingScenario.rsu[0].appl rxTimeOfService_SCH_41_1963 0
scalar SlicingScenario.rsu[0].appl txTimeOfService_SCH_41_1963 0
scalar SlicingScenario.rsu[0].appl txPackets_SCH_41_1969 0
scalar SlicingScenario.rsu[0].appl rxPackets_SCH_41_1969 0
scalar SlicingScenario.rsu[0].appl rxNeighborPackets_SCH_41_1969 0
scalar SlicingScenario.rsu[0].appl meanDelay_SCH_41_1969 0
scalar SlicingScenario.rsu[0].appl meanJitter_SCH_41_1969 0
scalar SlicingScenario.rsu[0].appl meanRxPacketSize_SCH_41_1969 0
scalar SlicingScenario.rsu[0].appl meanTxPacketSize_SCH_41_1969 0
scalar SlicingScenario.rsu[0].appl meanRxThroughput_SCH_41_1969 0
scalar SlicingScenario.rsu[0].appl meanTxThroughput_SCH_41_1969 0
scalar SlicingScenario.rsu[0].appl rxTimeOfService_SCH_41_1969 0
scalar SlicingScenario.rsu[0].appl txTimeOfService_SCH_41_1969 0
scalar SlicingScenario.rsu[0].appl txPackets_SCH_41_1981 0
scalar SlicingScenario.rsu[0].appl rxPackets_SCH_41_1981 0
scalar SlicingScenario.rsu[0].appl rxNeighborPackets_SCH_41_1981 0
scalar SlicingScenario.rsu[0].appl meanDelay_SCH_41_1981 0
scalar SlicingScenario.rsu[0].appl meanJitter_SCH_41_1981 0
scalar SlicingScenario.rsu[0].appl meanRxPacketSize_SCH_41_1981 0
scalar SlicingScenario.rsu[0].appl meanTxPacketSize_SCH_41_1981 0
scalar SlicingScenario.rsu[0].appl meanRxThroughput_SCH_41_1981 0
scalar SlicingScenario.rsu[0].appl meanTxThroughput_SCH_41_1981 0
scalar SlicingScenario.rsu[0].appl rxTimeOfService_SCH_41_1981 0
scalar SlicingScenario.rsu[0].appl txTimeOfService_SCH_41_1981 0
scalar SlicingScenario.rsu[0].appl txPackets_SCH_41_1993 0
scalar SlicingScenario.rsu[0].appl rxPackets_SCH_41_1993 0
scalar SlicingScenario.rsu[0].appl rxNeighborPackets_SCH_41_1993 0
scalar SlicingScenario.rsu[0].appl meanDelay_SCH_41_1993 0
scalar SlicingScenario.rsu[0].appl meanJitter_SCH_41_1993 0
scalar SlicingScenario.rsu[0].appl meanRxPacketSize_SCH_41_1993 0
scalar SlicingScenario.rsu[0].appl meanTxPacketSize_SCH_41_1993 0
scalar SlicingScenario.rsu[0].appl meanRxThroughput_SCH_41_1993 0
scalar SlicingScenario.rsu[0].appl meanTxThroughput_SCH_41_1993 0
scalar SlicingScenario.rsu[0].appl rxTimeOfService_SCH_41_1993 0
scalar SlicingScenario.rsu[0].appl txTimeOfService_SCH_41_1993 0
scalar SlicingScenario.rsu[0].appl txPackets_SCH_41_2017 0
scalar SlicingScenario.rsu[0].appl rxPackets_SCH_41_2017 0
scalar SlicingScenario.rsu[0].appl rxNeighborPackets_SCH_41_2017 0
scalar SlicingScenario.rsu[0].appl meanDelay_SCH_41_2017 0
scalar SlicingScenario.rsu[0].appl meanJitter_SCH_41_2017 0
scalar SlicingScenario.rsu[0].appl meanRxPacketSize_SCH_41_2017 0
scalar SlicingScenario.rsu[0].appl meanTxPacketSize_SCH_41_2017 0
scalar SlicingScenario.rsu[0].appl meanRxThroughput_SCH_41_2017 0
scalar SlicingScenario.rsu[0].appl meanTxThroughput_SCH_41_2017 0
scalar SlicingScenario.rsu[0].appl rxTimeOfService_SCH_41_2017 0
scalar SlicingScenario.rsu[0].appl txTimeOfService_SCH_41_2017 0
scalar SlicingScenario.rsu[0].appl txPackets_SCH_41_2041 0
scalar SlicingScenario.rsu[0].appl rxPackets_SCH_41_2041 0
scalar SlicingScenario.rsu[0].appl rxNeighborPackets_SCH_41_2041 0
scalar SlicingScenario.rsu[0].appl meanDelay_SCH_41_2041 0
scalar SlicingScenario.rsu[0].appl meanJitter_SCH_41_2041 0
scalar SlicingScenario.rsu[0].appl meanRxPacketSize_SCH_41_2041 0
scalar SlicingScenario.rsu[0].appl meanTxPacketSize_SCH_41_2041 0
scalar SlicingScenario.rsu[0].appl meanRxThroughput_SCH_41_2041 0
scalar SlicingScenario.rsu[0].appl meanTxThroughput_SCH_41_2041 0
scalar SlicingScenario.rsu[0].appl rxTimeOfService_SCH_41_2041 0
scalar SlicingScenario.rsu[0].appl txTimeOfService_SCH_41_2041 0
scalar SlicingScenario.rsu[0].appl txPackets_SCH_41_2047 0
scalar SlicingScenario.rsu[0].appl rxPackets_SCH_41_2047 0
scalar SlicingScenario.rsu[0].appl rxNeighborPackets_SCH_41_2047 0
scalar SlicingScenario.rsu[0].appl meanDelay_SCH_41_2047 0
scalar SlicingScenario.rsu[0].appl meanJitter_SCH_41_2047 0
scalar SlicingScenario.rsu[0].appl meanRxPacketSize_SCH_41_2047 0
scalar SlicingScenario.rsu[0].appl meanTxPacketSize_SCH_41_2047 0
scalar SlicingScenario.rsu[0].appl meanRxThroughput_SCH_41_2047 0
scalar SlicingScenario.rsu[0].appl meanTxThroughput_SCH_41_2047 0
scalar SlicingScenario.rsu[0].appl rxTimeOfService_SCH_41_2047 0
scalar SlicingScenario.rsu[0].appl txTimeOfService_SCH_41_2047 0
scalar SlicingScenario.rsu[0].appl txPackets_SCH_41_2053 0
scalar SlicingScenario.rsu[0].appl rxPackets_SCH_41_2053 0
scalar SlicingScenario.rsu[0].appl rxNeighborPackets_SCH_41_2053 0
scalar SlicingScenario.rsu[0].appl meanDelay_SCH_41_2053 0
scalar SlicingScenario.rsu[0].appl meanJitter_SCH_41_2053 0
scalar SlicingScenario.rsu[0].appl meanRxPacketSize_SCH_41_2053 0
scalar SlicingScenario.rsu[0].appl meanTxPacketSize_SCH_41_2053 0
scalar SlicingScenario.rsu[0].appl meanRxThroughput_SCH_41_2053 0
scalar SlicingScenario.rsu[0].appl meanTxThroughput_SCH_41_2053 0
scalar SlicingScenario.rsu[0].appl rxTimeOfService_SCH_41_2053 0
scalar SlicingScenario.rsu[0].appl txTimeOfService_SCH_41_2053 0
scalar SlicingScenario.rsu[0].appl txPackets_SCH_41_2065 0
scalar SlicingScenario.rsu[0].appl rxPackets_SCH_41_2065 0
scalar SlicingScenario.rsu[0].appl rxNeighborPackets_SCH_41_2065 0
scalar SlicingScenario.rsu[0].appl meanDelay_SCH_41_2065 0
scalar SlicingScenario.rsu[0].appl meanJitter_SCH_41_2065 0
scalar SlicingScenario.rsu[0].appl meanRxPacketSize_SCH_41_2065 0
scalar SlicingScenario.rsu[0].appl meanTxPacketSize_SCH_41_2065 0
scalar SlicingScenario.rsu[0].appl meanRxThroughput_SCH_41_2065 0
scalar SlicingScenario.rsu[0].appl meanTxThroughput_SCH_41_2065 0
scalar SlicingScenario.rsu[0].appl rxTimeOfService_SCH_41_2065 0
scalar SlicingScenario.rsu[0].appl txTimeOfService_SCH_41_2065 0
scalar SlicingScenario.rsu[0].appl txPackets_SCH_41_2089 0
scalar SlicingScenario.rsu[0].appl rxPackets_SCH_41_2089 0
scalar SlicingScenario.rsu[0].appl rxNeighborPackets_SCH_41_2089 0
scalar SlicingScenario.rsu[0].appl meanDelay_SCH_41_2089 0
scalar SlicingScenario.rsu[0].appl meanJitter_SCH_41_2089 0
scalar SlicingScenario.rsu[0].appl meanRxPacketSize_SCH_41_2089 0
scalar SlicingScenario.rsu[0].appl meanTxPacketSize_SCH_41_2089 0
scalar SlicingScenario.rsu[0].appl meanRxThroughput_SCH_41_2089 0
scalar SlicingScenario.rsu[0].appl meanTxThroughput_SCH_41_2089 0
scalar SlicingScenario.rsu[0].appl rxTimeOfService_SCH_41_2089 0
scalar SlicingScenario.rsu[0].appl txTimeOfService_SCH_41_2089 0
scalar SlicingScenario.rsu[0].appl txPackets_SCH_41_2095 0
scalar SlicingScenario.rsu[0].appl rxPackets_SCH_41_2095 0
scalar SlicingScenario.rsu[0].appl rxNeighborPackets_SCH_41_2095 0
scalar SlicingScenario.rsu[0].appl meanDelay_SCH_41_2095 0
scalar SlicingScenario.rsu[0].appl meanJitter_SCH_41_2095 0
scalar SlicingScenario.rsu[0].appl meanRxPacketSize_SCH_41_2095 0
scalar SlicingScenario.rsu[0].appl meanTxPacketSize_SCH_41_2095 0
scalar SlicingScenario.rsu[0].appl meanRxThroughput_SCH_41_2095 0
scalar SlicingScenario.rsu[0].appl meanTxThroughput_SCH_41_2095 0
scalar SlicingScenario.rsu[0].appl rxTimeOfService_SCH_41_2095 0
scalar SlicingScenario.rsu[0].appl txTimeOfService_SCH_41_2095 0
scalar SlicingScenario.rsu[0].appl txPackets_SCH_41_2101 0
scalar SlicingScenario.rsu[0].appl rxPackets_SCH_41_2101 0
scalar SlicingScenario.rsu[0].appl rxNeighborPackets_SCH_41_2101 0
scalar SlicingScenario.rsu[0].appl meanDelay_SCH_41_2101 0
scalar SlicingScenario.rsu[0].appl meanJitter_SCH_41_2101 0
scalar SlicingScenario.rsu[0].appl meanRxPacketSize_SCH_41_2101 0
scalar SlicingScenario.rsu[0].appl meanTxPacketSize_SCH_41_2101 0
scalar SlicingScenario.rsu[0].appl meanRxThroughput_SCH_41_2101 0
scalar SlicingScenario.rsu[0].appl meanTxThroughput_SCH_41_2101 0
scalar SlicingScenario.rsu[0].appl rxTimeOfService_SCH_41_2101 0
scalar SlicingScenario.rsu[0].appl txTimeOfService_SCH_41_2101 0
scalar SlicingScenario.rsu[0].appl txPackets_SCH_41_2113 0
scalar SlicingScenario.rsu[0].appl rxPackets_SCH_41_2113 0
scalar SlicingScenario.rsu[0].appl rxNeighborPackets_SCH_41_2113 0
scalar SlicingScenario.rsu[0].appl meanDelay_SCH_41_2113 0
scalar SlicingScenario.rsu[0].appl meanJitter_SCH_41_2113 0
scalar SlicingScenario.rsu[0].appl meanRxPacketSize_SCH_41_2113 0
scalar SlicingScenario.rsu[0].appl meanTxPacketSize_SCH_41_2113 0
scalar SlicingScenario.rsu[0].appl meanRxThroughput_SCH_41_2113 0
scalar SlicingScenario.rsu[0].appl meanTxThroughput_SCH_41_2113 0
scalar SlicingScenario.rsu[0].appl rxTimeOfService_SCH_41_2113 0
scalar SlicingScenario.rsu[0].appl txTimeOfService_SCH_41_2113 0
scalar SlicingScenario.rsu[0].appl txPackets_SCH_41_2119 0
scalar SlicingScenario.rsu[0].appl rxPackets_SCH_41_2119 0
scalar SlicingScenario.rsu[0].appl rxNeighborPackets_SCH_41_2119 0
scalar SlicingScenario.rsu[0].appl meanDelay_SCH_41_2119 0
scalar SlicingScenario.rsu[0].appl meanJitter_SCH_41_2119 0
scalar SlicingScenario.rsu[0].appl meanRxPacketSize_SCH_41_2119 0
scalar SlicingScenario.rsu[0].appl meanTxPacketSize_SCH_41_2119 0
scalar SlicingScenario.rsu[0].appl meanRxThroughput_SCH_41_2119 0
scalar SlicingScenario.rsu[0].appl meanTxThroughput_SCH_41_2119 0
scalar SlicingScenario.rsu[0].appl rxTimeOfService_SCH_41_2119 0
scalar SlicingScenario.rsu[0].appl txTimeOfService_SCH_41_2119 0
scalar SlicingScenario.rsu[0].appl txPackets_SCH_41_2131 0
scalar SlicingScenario.rsu[0].appl rxPackets_SCH_41_2131 0
scalar SlicingScenario.rsu[0].appl rxNeighborPackets_SCH_41_2131 0
scalar SlicingScenario.rsu[0].appl meanDelay_SCH_41_2131 0
scalar SlicingScenario.rsu[0].appl meanJitter_SCH_41_2131 0
scalar SlicingScenario.rsu[0].appl meanRxPacketSize_SCH_41_2131 0
scalar SlicingScenario.rsu[0].appl meanTxPacketSize_SCH_41_2131 0
scalar SlicingScenario.rsu[0].appl meanRxThroughput_SCH_41_2131 0
scalar SlicingScenario.rsu[0].appl meanTxThroughput_SCH_41_2131 0
scalar SlicingScenario.rsu[0].appl rxTimeOfService_SCH_41_2131 0
scalar SlicingScenario.rsu[0].appl txTimeOfService_SCH_41_2131 0
scalar SlicingScenario.rsu[0].appl txPackets_SCH_41_2149 0
scalar SlicingScenario.rsu[0].appl rxPackets_SCH_41_2149 0
scalar SlicingScenario.rsu[0].appl rxNeighborPackets_SCH_41_2149 0
scalar SlicingScenario.rsu[0].appl meanDelay_SCH_41_2149 0
scalar SlicingScenario.rsu[0].appl meanJitter_SCH_41_2149 0
scalar SlicingScenario.rsu[0].appl meanRxPacketSize_SCH_41_2149 0
scalar SlicingScenario.rsu[0].appl meanTxPacketSize_SCH_41_2149 0
scalar SlicingScenario.rsu[0].appl meanRxThroughput_SCH_41_2149 0
scalar SlicingScenario.rsu[0].appl meanTxThroughput_SCH_41_2149 0
scalar SlicingScenario.rsu[0].appl rxTimeOfService_SCH_41_2149 0
scalar SlicingScenario.rsu[0].appl txTimeOfService_SCH_41_2149 0
scalar SlicingScenario.rsu[0].appl txPackets_SCH_41_2155 0
scalar SlicingScenario.rsu[0].appl rxPackets_SCH_41_2155 0
scalar SlicingScenario.rsu[0].appl rxNeighborPackets_SCH_41_2155 0
scalar SlicingScenario.rsu[0].appl meanDelay_SCH_41_2155 0
scalar SlicingScenario.rsu[0].appl meanJitter_SCH_41_2155 0
scalar SlicingScenario.rsu[0].appl meanRxPacketSize_SCH_41_2155 0
scalar SlicingScenario.rsu[0].appl meanTxPacketSize_SCH_41_2155 0
scalar SlicingScenario.rsu[0].appl meanRxThroughput_SCH_41_2155 0
scalar SlicingScenario.rsu[0].appl meanTxThroughput_SCH_41_2155 0
scalar SlicingScenario.rsu[0].appl rxTimeOfService_SCH_41_2155 0
scalar SlicingScenario.rsu[0].appl txTimeOfService_SCH_41_2155 0
scalar SlicingScenario.rsu[0].appl txPackets_SCH_41_2161 0
scalar SlicingScenario.rsu[0].appl rxPackets_SCH_41_2161 0
scalar SlicingScenario.rsu[0].appl rxNeighborPackets_SCH_41_2161 0
scalar SlicingScenario.rsu[0].appl meanDelay_SCH_41_2161 0
scalar SlicingScenario.rsu[0].appl meanJitter_SCH_41_2161 0
scalar SlicingScenario.rsu[0].appl meanRxPacketSize_SCH_41_2161 0
scalar SlicingScenario.rsu[0].appl meanTxPacketSize_SCH_41_2161 0
scalar SlicingScenario.rsu[0].appl meanRxThroughput_SCH_41_2161 0
scalar SlicingScenario.rsu[0].appl meanTxThroughput_SCH_41_2161 0
scalar SlicingScenario.rsu[0].appl rxTimeOfService_SCH_41_2161 0
scalar SlicingScenario.rsu[0].appl txTimeOfService_SCH_41_2161 0
scalar SlicingScenario.rsu[0].appl txPackets_SCH_41_2173 0
scalar SlicingScenario.rsu[0].appl rxPackets_SCH_41_2173 0
scalar SlicingScenario.rsu[0].appl rxNeighborPackets_SCH_41_2173 0
scalar SlicingScenario.rsu[0].appl meanDelay_SCH_41_2173 0
scalar SlicingScenario.rsu[0].appl meanJitter_SCH_41_2173 0
scalar SlicingScenario.rsu[0].appl meanRxPacketSize_SCH_41_2173 0
scalar SlicingScenario.rsu[0].appl meanTxPacketSize_SCH_41_2173 0
scalar SlicingScenario.rsu[0].appl meanRxThroughput_SCH_41_2173 0
scalar SlicingScenario.rsu[0].appl meanTxThroughput_SCH_41_2173 0
scalar SlicingScenario.rsu[0].appl rxTimeOfService_SCH_41_2173 0
scalar SlicingScenario.rsu[0].appl txTimeOfService_SCH_41_2173 0
scalar SlicingScenario.rsu[0].appl txPackets_SCH_41_2185 0
scalar SlicingScenario.rsu[0].appl rxPackets_SCH_41_2185 0
scalar SlicingScenario.rsu[0].appl rxNeighborPackets_SCH_41_2185 0
scalar SlicingScenario.rsu[0].appl meanDelay_SCH_41_2185 0
scalar SlicingScenario.rsu[0].appl meanJitter_SCH_41_2185 0
scalar SlicingScenario.rsu[0].appl meanRxPacketSize_SCH_41_2185 0
scalar SlicingScenario.rsu[0].appl meanTxPacketSize_SCH_41_2185 0
scalar SlicingScenario.rsu[0].appl meanRxThroughput_SCH_41_2185 0
scalar SlicingScenario.rsu[0].appl meanTxThroughput_SCH_41_2185 0
scalar SlicingScenario.rsu[0].appl rxTimeOfService_SCH_41_2185 0
scalar SlicingScenario.rsu[0].appl txTimeOfService_SCH_41_2185 0
scalar SlicingScenario.rsu[0].appl txPackets_SCH_41_2197 0
scalar SlicingScenario.rsu[0].appl rxPackets_SCH_41_2197 0
scalar SlicingScenario.rsu[0].appl rxNeighborPackets_SCH_41_2197 0
scalar SlicingScenario.rsu[0].appl meanDelay_SCH_41_2197 0
scalar SlicingScenario.rsu[0].appl meanJitter_SCH_41_2197 0
scalar SlicingScenario.rsu[0].appl meanRxPacketSize_SCH_41_2197 0
scalar SlicingScenario.rsu[0].appl meanTxPacketSize_SCH_41_2197 0
scalar SlicingScenario.rsu[0].appl meanRxThroughput_SCH_41_2197 0
scalar SlicingScenario.rsu[0].appl meanTxThroughput_SCH_41_2197 0
scalar SlicingScenario.rsu[0].appl rxTimeOfService_SCH_41_2197 0
scalar SlicingScenario.rsu[0].appl txTimeOfService_SCH_41_2197 0
scalar SlicingScenario.rsu[0].nic.phy80211p busyTime 0
scalar SlicingScenario.rsu[0].nic.phy80211p ncollisions 0
scalar SlicingScenario.rsu[0].nic.phy80211p UnderSensitivityPackets 0
scalar SlicingScenario.rsu[0].nic.mac1609_4 ReceivedUnicastPackets_CCH 0
scalar SlicingScenario.rsu[0].nic.mac1609_4 ReceivedBroadcasts_CCH 0
scalar SlicingScenario.rsu[0].nic.mac1609_4 SentPackets_CCH 0
scalar SlicingScenario.rsu[0].nic.mac1609_4 SentAcknowledgements_CCH 0
scalar SlicingScenario.rsu[0].nic.mac1609_4 SNIRLostPackets_CCH 0
scalar SlicingScenario.rsu[0].nic.mac1609_4 RXTXLostPackets_CCH 0
scalar SlicingScenario.rsu[0].nic.mac1609_4 TotalLostPackets_CCH 0
scalar SlicingScenario.rsu[0].nic.mac1609_4 DroppedPacketsInMac_CCH 0
scalar SlicingScenario.rsu[0].nic.mac1609_4 TooLittleTime_CCH 0
scalar SlicingScenario.rsu[0].nic.mac1609_4 TimesIntoBackoff_CCH 0
scalar SlicingScenario.rsu[0].nic.mac1609_4 SlotsBackoff_CCH 0
scalar SlicingScenario.rsu[0].nic.mac1609_4 NumInternalContention_CCH 0
scalar SlicingScenario.rsu[0].nic.mac1609_4 RemainingPacketsInEDCA_CCH 0
scalar SlicingScenario.rsu[0].nic.mac1609_4 totalBusyTime_CCH 0
scalar SlicingScenario.rsu[0].nic.mac1609_4 ReceivedUnicastPackets_SCH 0
scalar SlicingScenario.rsu[0].nic.mac1609_4 ReceivedBroadcasts_SCH 0
scalar SlicingScenario.rsu[0].nic.mac1609_4 SentPackets_SCH 62780
scalar SlicingScenario.rsu[0].nic.mac1609_4 SentAcknowledgements_SCH 0
scalar SlicingScenario.rsu[0].nic.mac1609_4 SNIRLostPackets_SCH 0
scalar SlicingScenario.rsu[0].nic.mac1609_4 RXTXLostPackets_SCH 0
scalar SlicingScenario.rsu[0].nic.mac1609_4 TotalLostPackets_SCH 0
scalar SlicingScenario.rsu[0].nic.mac1609_4 DroppedPacketsInMac_SCH 0
scalar SlicingScenario.rsu[0].nic.mac1609_4 TooLittleTime_SCH 43204
scalar SlicingScenario.rsu[0].nic.mac1609_4 TimesIntoBackoff_SCH 65089
scalar SlicingScenario.rsu[0].nic.mac1609_4 SlotsBackoff_SCH 220223
scalar SlicingScenario.rsu[0].nic.mac1609_4 NumInternalContention_SCH 0
scalar SlicingScenario.rsu[0].nic.mac1609_4 RemainingPacketsInEDCA_SCH 610270
scalar SlicingScenario.rsu[0].nic.mac1609_4 totalBusyTime_SCH 124.186699

