version 2
run General-3-20190316-16:18:10-4954
attr configname General
attr datetime 20190316-16:18:10
attr experiment General
attr inifile omnetpp.ini
attr iterationvars "$vehicles=0.1, $msgSizeA=1500B, $serviceMsgInterval=0.04s, $msgSizeB=10000B"
attr iterationvarsf vehicles=0.1,msgSizeA=1500B,serviceMsgInterval=0.04s,msgSizeB=10000B-
attr measurement "$vehicles=0.1, $msgSizeA=1500B, $serviceMsgInterval=0.04s, $msgSizeB=10000B"
attr network com.liborio.slicing.SlicingScenario
attr processid 4954
attr repetition 3
attr replication #3
attr resultdir results
attr runnumber 3
attr seedset 3
itervar msgSizeA 1500B
itervar msgSizeB 10000B
itervar serviceMsgInterval 0.04s
itervar vehicles 0.1
param **.debug false
param **.coreDebug false
param *.playgroundSizeX 1200m
param *.playgroundSizeY 1200m
param *.playgroundSizeZ 50m
param *.annotations.draw true
param *.manager.updateInterval 1s
param *.manager.host "\"localhost\""
param *.manager.port 9999
param *.manager.autoShutdown true
param *.manager.launchConfig "xmldoc(\"highway-\"+string(0.1)+\".launchd.xml\")"
param *.connectionManager.sendDirect true
param *.connectionManager.maxInterfDist 2600m
param *.connectionManager.drawMaxIntfDist false
param *.rsu[*].applType "\"RSUApp\""
param *.rsu[*].appl.headerLength "80 bit"
param *.rsu[*].appl.sendBeacons false
param *.rsu[*].appl.dataOnSch true
param *.rsu[*].appl.beaconInterval 1s
param *.rsu[*].appl.beaconUserPriority 7
param *.rsu[*].appl.dataUserPriority 5
param *.rsu[*].appl.entMsgADataLengthBytes 1500B
param *.rsu[*].appl.entMsgAUserPriority 4
param *.rsu[*].appl.entMsgAInterval 0.04s
param *.rsu[*].appl.entMsgBDataLengthBytes 10000B
param *.rsu[*].appl.entMsgBUserPriority 4
param *.rsu[*].appl.entMsgBInterval 0.04s
param *.rsu[*].nic.mac1609_4.useServiceChannel true
param *.rsu[*].nic.mac1609_4.txPower 20mW
param *.rsu[*].nic.mac1609_4.bitrate 6Mbps
param *.rsu[*].nic.phy80211p.sensitivity -90.00dBm
param *.rsu[0].mobility.x 515.0
param *.rsu[0].mobility.y 25.0
param *.rsu[0].mobility.z 3
param *.node[*].applType "\"VehApp\""
param *.node[*].appl.headerLength "80 bit"
param *.node[*].appl.sendBeacons false
param *.node[*].appl.dataOnSch true
param *.node[*].appl.beaconInterval 1s
param *.node[*].appl.wsaInterval 1s
param *.node[*].appl.entMsgADataLengthBits 1500B
param *.node[*].appl.entMsgAUserPriority 4
param *.node[*].appl.entMsgAInterval 0.04s
param *.node[*].appl.entMsgBDataLengthBits 10000B
param *.node[*].appl.entMsgBUserPriority 4
param *.node[*].appl.entMsgBInterval 0.04s
param *.node[*].nic.mac1609_4.useServiceChannel true
param *.node[*].nic.mac1609_4.txPower 20mW
param *.node[*].nic.mac1609_4.bitrate 6Mbps
param *.node[*].nic.phy80211p.sensitivity -90.00dBm
param *.node[*].veinsmobilityType.debug true
param *.node[*].veinsmobility.x 0
param *.node[*].veinsmobility.y 0
param *.node[*].veinsmobility.z 1.895
param *.**.nic.phy80211p.useThermalNoise true
param *.**.nic.phy80211p.thermalNoise -110dBm
param *.**.nic.phy80211p.decider "xmldoc(\"config.xml\")"
param *.**.nic.phy80211p.analogueModels "xmldoc(\"config.xml\")"
param *.**.nic.phy80211p.usePropagationDelay true
param *.**.nic.phy80211p.antenna "xmldoc(\"antenna.xml\", \"/root/Antenna[@id='monopole']\")"
param *.**.nic.phy80211p.collectCollisionStatistics true
param *.**.nic.phy80211p.allowTxDuringRx false

scalar SlicingScenario.node[3].appl txPackets_CCH_31 0
scalar SlicingScenario.node[3].appl rxPackets_CCH_31 0
scalar SlicingScenario.node[3].appl rxNeighborPackets_CCH_31 0
scalar SlicingScenario.node[3].appl meanDelay_CCH_31 0
scalar SlicingScenario.node[3].appl meanJitter_CCH_31 0
scalar SlicingScenario.node[3].appl meanRxPacketSize_CCH_31 0
scalar SlicingScenario.node[3].appl meanTxPacketSize_CCH_31 0
scalar SlicingScenario.node[3].appl meanRxThroughput_CCH_31 0
scalar SlicingScenario.node[3].appl meanTxThroughput_CCH_31 0
scalar SlicingScenario.node[3].appl rxTimeOfService_CCH_31 0
scalar SlicingScenario.node[3].appl txTimeOfService_CCH_31 0
scalar SlicingScenario.node[3].appl txPackets_SCH_40_31 0
scalar SlicingScenario.node[3].appl rxPackets_SCH_40_31 365
scalar SlicingScenario.node[3].appl rxNeighborPackets_SCH_40_31 2309
scalar SlicingScenario.node[3].appl meanDelay_SCH_40_31 24.062010374387
scalar SlicingScenario.node[3].appl meanJitter_SCH_40_31 0.194705940262
scalar SlicingScenario.node[3].appl meanRxPacketSize_SCH_40_31 1510
scalar SlicingScenario.node[3].appl meanTxPacketSize_SCH_40_31 0
scalar SlicingScenario.node[3].appl meanRxThroughput_SCH_40_31 51586.331020002
scalar SlicingScenario.node[3].appl meanTxThroughput_SCH_40_31 0
scalar SlicingScenario.node[3].appl rxTimeOfService_SCH_40_31 85.472254235146
scalar SlicingScenario.node[3].appl txTimeOfService_SCH_40_31 0
scalar SlicingScenario.node[3].nic.phy80211p busyTime 0.36766695652179
scalar SlicingScenario.node[3].nic.phy80211p ncollisions 0
scalar SlicingScenario.node[3].nic.phy80211p UnderSensitivityPackets 1278
scalar SlicingScenario.node[3].nic.mac1609_4 ReceivedUnicastPackets_CCH 0
scalar SlicingScenario.node[3].nic.mac1609_4 ReceivedBroadcasts_CCH 0
scalar SlicingScenario.node[3].nic.mac1609_4 SentPackets_CCH 0
scalar SlicingScenario.node[3].nic.mac1609_4 SentAcknowledgements_CCH 0
scalar SlicingScenario.node[3].nic.mac1609_4 SNIRLostPackets_CCH 0
scalar SlicingScenario.node[3].nic.mac1609_4 RXTXLostPackets_CCH 0
scalar SlicingScenario.node[3].nic.mac1609_4 TotalLostPackets_CCH 0
scalar SlicingScenario.node[3].nic.mac1609_4 DroppedPacketsInMac_CCH 0
scalar SlicingScenario.node[3].nic.mac1609_4 TooLittleTime_CCH 0
scalar SlicingScenario.node[3].nic.mac1609_4 TimesIntoBackoff_CCH 0
scalar SlicingScenario.node[3].nic.mac1609_4 SlotsBackoff_CCH 0
scalar SlicingScenario.node[3].nic.mac1609_4 NumInternalContention_CCH 0
scalar SlicingScenario.node[3].nic.mac1609_4 RemainingPacketsInEDCA_CCH 0
scalar SlicingScenario.node[3].nic.mac1609_4 totalBusyTime_CCH 0
scalar SlicingScenario.node[3].nic.mac1609_4 ReceivedUnicastPackets_SCH 0
scalar SlicingScenario.node[3].nic.mac1609_4 ReceivedBroadcasts_SCH 17057
scalar SlicingScenario.node[3].nic.mac1609_4 SentPackets_SCH 0
scalar SlicingScenario.node[3].nic.mac1609_4 SentAcknowledgements_SCH 0
scalar SlicingScenario.node[3].nic.mac1609_4 SNIRLostPackets_SCH 0
scalar SlicingScenario.node[3].nic.mac1609_4 RXTXLostPackets_SCH 0
scalar SlicingScenario.node[3].nic.mac1609_4 TotalLostPackets_SCH 0
scalar SlicingScenario.node[3].nic.mac1609_4 DroppedPacketsInMac_SCH 0
scalar SlicingScenario.node[3].nic.mac1609_4 TooLittleTime_SCH 0
scalar SlicingScenario.node[3].nic.mac1609_4 TimesIntoBackoff_SCH 0
scalar SlicingScenario.node[3].nic.mac1609_4 SlotsBackoff_SCH 0
scalar SlicingScenario.node[3].nic.mac1609_4 NumInternalContention_SCH 0
scalar SlicingScenario.node[3].nic.mac1609_4 RemainingPacketsInEDCA_SCH 0
scalar SlicingScenario.node[3].nic.mac1609_4 totalBusyTime_SCH 33.82536
scalar SlicingScenario.node[3].veinsmobility startTime 1
scalar SlicingScenario.node[3].veinsmobility totalTime 91
scalar SlicingScenario.node[3].veinsmobility stopTime 93
scalar SlicingScenario.node[3].veinsmobility minSpeed 10.621254979763
scalar SlicingScenario.node[3].veinsmobility maxSpeed 11.093136035153
scalar SlicingScenario.node[3].veinsmobility totalDistance 978.99732867509
scalar SlicingScenario.node[3].veinsmobility totalCO2Emission 160.74249769476
scalar SlicingScenario.node[0].appl txPackets_CCH_13 0
scalar SlicingScenario.node[0].appl rxPackets_CCH_13 0
scalar SlicingScenario.node[0].appl rxNeighborPackets_CCH_13 0
scalar SlicingScenario.node[0].appl meanDelay_CCH_13 0
scalar SlicingScenario.node[0].appl meanJitter_CCH_13 0
scalar SlicingScenario.node[0].appl meanRxPacketSize_CCH_13 0
scalar SlicingScenario.node[0].appl meanTxPacketSize_CCH_13 0
scalar SlicingScenario.node[0].appl meanRxThroughput_CCH_13 0
scalar SlicingScenario.node[0].appl meanTxThroughput_CCH_13 0
scalar SlicingScenario.node[0].appl rxTimeOfService_CCH_13 0
scalar SlicingScenario.node[0].appl txTimeOfService_CCH_13 0
scalar SlicingScenario.node[0].appl txPackets_SCH_40_13 0
scalar SlicingScenario.node[0].appl rxPackets_SCH_40_13 363
scalar SlicingScenario.node[0].appl rxNeighborPackets_SCH_40_13 2284
scalar SlicingScenario.node[0].appl meanDelay_SCH_40_13 23.550577563838
scalar SlicingScenario.node[0].appl meanJitter_SCH_40_13 0.19555773481
scalar SlicingScenario.node[0].appl meanRxPacketSize_SCH_40_13 1510
scalar SlicingScenario.node[0].appl meanTxPacketSize_SCH_40_13 0
scalar SlicingScenario.node[0].appl meanRxThroughput_SCH_40_13 51348.388034455
scalar SlicingScenario.node[0].appl meanTxThroughput_SCH_40_13 0
scalar SlicingScenario.node[0].appl rxTimeOfService_SCH_40_13 85.39781223624
scalar SlicingScenario.node[0].appl txTimeOfService_SCH_40_13 0
scalar SlicingScenario.node[0].nic.phy80211p busyTime 0.36306313043483
scalar SlicingScenario.node[0].nic.phy80211p ncollisions 0
scalar SlicingScenario.node[0].nic.phy80211p UnderSensitivityPackets 1492
scalar SlicingScenario.node[0].nic.mac1609_4 ReceivedUnicastPackets_CCH 0
scalar SlicingScenario.node[0].nic.mac1609_4 ReceivedBroadcasts_CCH 0
scalar SlicingScenario.node[0].nic.mac1609_4 SentPackets_CCH 0
scalar SlicingScenario.node[0].nic.mac1609_4 SentAcknowledgements_CCH 0
scalar SlicingScenario.node[0].nic.mac1609_4 SNIRLostPackets_CCH 0
scalar SlicingScenario.node[0].nic.mac1609_4 RXTXLostPackets_CCH 0
scalar SlicingScenario.node[0].nic.mac1609_4 TotalLostPackets_CCH 0
scalar SlicingScenario.node[0].nic.mac1609_4 DroppedPacketsInMac_CCH 0
scalar SlicingScenario.node[0].nic.mac1609_4 TooLittleTime_CCH 0
scalar SlicingScenario.node[0].nic.mac1609_4 TimesIntoBackoff_CCH 0
scalar SlicingScenario.node[0].nic.mac1609_4 SlotsBackoff_CCH 0
scalar SlicingScenario.node[0].nic.mac1609_4 NumInternalContention_CCH 0
scalar SlicingScenario.node[0].nic.mac1609_4 RemainingPacketsInEDCA_CCH 0
scalar SlicingScenario.node[0].nic.mac1609_4 totalBusyTime_CCH 0
scalar SlicingScenario.node[0].nic.mac1609_4 ReceivedUnicastPackets_SCH 0
scalar SlicingScenario.node[0].nic.mac1609_4 ReceivedBroadcasts_SCH 16843
scalar SlicingScenario.node[0].nic.mac1609_4 SentPackets_SCH 0
scalar SlicingScenario.node[0].nic.mac1609_4 SentAcknowledgements_SCH 0
scalar SlicingScenario.node[0].nic.mac1609_4 SNIRLostPackets_SCH 0
scalar SlicingScenario.node[0].nic.mac1609_4 RXTXLostPackets_SCH 0
scalar SlicingScenario.node[0].nic.mac1609_4 TotalLostPackets_SCH 0
scalar SlicingScenario.node[0].nic.mac1609_4 DroppedPacketsInMac_SCH 0
scalar SlicingScenario.node[0].nic.mac1609_4 TooLittleTime_SCH 0
scalar SlicingScenario.node[0].nic.mac1609_4 TimesIntoBackoff_SCH 0
scalar SlicingScenario.node[0].nic.mac1609_4 SlotsBackoff_SCH 0
scalar SlicingScenario.node[0].nic.mac1609_4 NumInternalContention_SCH 0
scalar SlicingScenario.node[0].nic.mac1609_4 RemainingPacketsInEDCA_SCH 0
scalar SlicingScenario.node[0].nic.mac1609_4 totalBusyTime_SCH 33.401808
scalar SlicingScenario.node[0].veinsmobility startTime 1
scalar SlicingScenario.node[0].veinsmobility totalTime 91
scalar SlicingScenario.node[0].veinsmobility stopTime 93
scalar SlicingScenario.node[0].veinsmobility minSpeed 10.614478265764
scalar SlicingScenario.node[0].veinsmobility maxSpeed 11.108934002244
scalar SlicingScenario.node[0].veinsmobility totalDistance 978.26028027687
scalar SlicingScenario.node[0].veinsmobility totalCO2Emission 158.96740014079
scalar SlicingScenario.node[2].appl txPackets_CCH_25 0
scalar SlicingScenario.node[2].appl rxPackets_CCH_25 0
scalar SlicingScenario.node[2].appl rxNeighborPackets_CCH_25 0
scalar SlicingScenario.node[2].appl meanDelay_CCH_25 0
scalar SlicingScenario.node[2].appl meanJitter_CCH_25 0
scalar SlicingScenario.node[2].appl meanRxPacketSize_CCH_25 0
scalar SlicingScenario.node[2].appl meanTxPacketSize_CCH_25 0
scalar SlicingScenario.node[2].appl meanRxThroughput_CCH_25 0
scalar SlicingScenario.node[2].appl meanTxThroughput_CCH_25 0
scalar SlicingScenario.node[2].appl rxTimeOfService_CCH_25 0
scalar SlicingScenario.node[2].appl txTimeOfService_CCH_25 0
scalar SlicingScenario.node[2].appl txPackets_SCH_41_25 0
scalar SlicingScenario.node[2].appl rxPackets_SCH_41_25 2583
scalar SlicingScenario.node[2].appl rxNeighborPackets_SCH_41_25 11613
scalar SlicingScenario.node[2].appl meanDelay_SCH_41_25 23.387086196078
scalar SlicingScenario.node[2].appl meanJitter_SCH_41_25 0.028187753291
scalar SlicingScenario.node[2].appl meanRxPacketSize_SCH_41_25 1438
scalar SlicingScenario.node[2].appl meanTxPacketSize_SCH_41_25 0
scalar SlicingScenario.node[2].appl meanRxThroughput_SCH_41_25 346537.96798105
scalar SlicingScenario.node[2].appl meanTxThroughput_SCH_41_25 0
scalar SlicingScenario.node[2].appl rxTimeOfService_SCH_41_25 85.78176923351
scalar SlicingScenario.node[2].appl txTimeOfService_SCH_41_25 0
scalar SlicingScenario.node[2].nic.phy80211p busyTime 0.36306313043483
scalar SlicingScenario.node[2].nic.phy80211p ncollisions 0
scalar SlicingScenario.node[2].nic.phy80211p UnderSensitivityPackets 1492
scalar SlicingScenario.node[2].nic.mac1609_4 ReceivedUnicastPackets_CCH 0
scalar SlicingScenario.node[2].nic.mac1609_4 ReceivedBroadcasts_CCH 120
scalar SlicingScenario.node[2].nic.mac1609_4 SentPackets_CCH 0
scalar SlicingScenario.node[2].nic.mac1609_4 SentAcknowledgements_CCH 0
scalar SlicingScenario.node[2].nic.mac1609_4 SNIRLostPackets_CCH 0
scalar SlicingScenario.node[2].nic.mac1609_4 RXTXLostPackets_CCH 0
scalar SlicingScenario.node[2].nic.mac1609_4 TotalLostPackets_CCH 0
scalar SlicingScenario.node[2].nic.mac1609_4 DroppedPacketsInMac_CCH 0
scalar SlicingScenario.node[2].nic.mac1609_4 TooLittleTime_CCH 0
scalar SlicingScenario.node[2].nic.mac1609_4 TimesIntoBackoff_CCH 0
scalar SlicingScenario.node[2].nic.mac1609_4 SlotsBackoff_CCH 0
scalar SlicingScenario.node[2].nic.mac1609_4 NumInternalContention_CCH 0
scalar SlicingScenario.node[2].nic.mac1609_4 RemainingPacketsInEDCA_CCH 0
scalar SlicingScenario.node[2].nic.mac1609_4 totalBusyTime_CCH 0.447860727291
scalar SlicingScenario.node[2].nic.mac1609_4 ReceivedUnicastPackets_SCH 0
scalar SlicingScenario.node[2].nic.mac1609_4 ReceivedBroadcasts_SCH 16723
scalar SlicingScenario.node[2].nic.mac1609_4 SentPackets_SCH 0
scalar SlicingScenario.node[2].nic.mac1609_4 SentAcknowledgements_SCH 0
scalar SlicingScenario.node[2].nic.mac1609_4 SNIRLostPackets_SCH 0
scalar SlicingScenario.node[2].nic.mac1609_4 RXTXLostPackets_SCH 0
scalar SlicingScenario.node[2].nic.mac1609_4 TotalLostPackets_SCH 0
scalar SlicingScenario.node[2].nic.mac1609_4 DroppedPacketsInMac_SCH 0
scalar SlicingScenario.node[2].nic.mac1609_4 TooLittleTime_SCH 0
scalar SlicingScenario.node[2].nic.mac1609_4 TimesIntoBackoff_SCH 0
scalar SlicingScenario.node[2].nic.mac1609_4 SlotsBackoff_SCH 0
scalar SlicingScenario.node[2].nic.mac1609_4 NumInternalContention_SCH 0
scalar SlicingScenario.node[2].nic.mac1609_4 RemainingPacketsInEDCA_SCH 0
scalar SlicingScenario.node[2].nic.mac1609_4 totalBusyTime_SCH 33.17496
scalar SlicingScenario.node[2].veinsmobility startTime 1
scalar SlicingScenario.node[2].veinsmobility totalTime 91
scalar SlicingScenario.node[2].veinsmobility stopTime 93
scalar SlicingScenario.node[2].veinsmobility minSpeed 10.618484992199
scalar SlicingScenario.node[2].veinsmobility maxSpeed 11.109596760725
scalar SlicingScenario.node[2].veinsmobility totalDistance 978.13484664908
scalar SlicingScenario.node[2].veinsmobility totalCO2Emission 158.49873353849
scalar SlicingScenario.node[1].appl txPackets_CCH_19 0
scalar SlicingScenario.node[1].appl rxPackets_CCH_19 0
scalar SlicingScenario.node[1].appl rxNeighborPackets_CCH_19 0
scalar SlicingScenario.node[1].appl meanDelay_CCH_19 0
scalar SlicingScenario.node[1].appl meanJitter_CCH_19 0
scalar SlicingScenario.node[1].appl meanRxPacketSize_CCH_19 0
scalar SlicingScenario.node[1].appl meanTxPacketSize_CCH_19 0
scalar SlicingScenario.node[1].appl meanRxThroughput_CCH_19 0
scalar SlicingScenario.node[1].appl meanTxThroughput_CCH_19 0
scalar SlicingScenario.node[1].appl rxTimeOfService_CCH_19 0
scalar SlicingScenario.node[1].appl txTimeOfService_CCH_19 0
scalar SlicingScenario.node[1].appl txPackets_SCH_40_19 0
scalar SlicingScenario.node[1].appl rxPackets_SCH_40_19 359
scalar SlicingScenario.node[1].appl rxNeighborPackets_SCH_40_19 2315
scalar SlicingScenario.node[1].appl meanDelay_SCH_40_19 24.293164482933
scalar SlicingScenario.node[1].appl meanJitter_SCH_40_19 0.197431984885
scalar SlicingScenario.node[1].appl meanRxPacketSize_SCH_40_19 1510
scalar SlicingScenario.node[1].appl meanTxPacketSize_SCH_40_19 0
scalar SlicingScenario.node[1].appl meanRxThroughput_SCH_40_19 50897.855148406
scalar SlicingScenario.node[1].appl meanTxThroughput_SCH_40_19 0
scalar SlicingScenario.node[1].appl rxTimeOfService_SCH_40_19 85.20437624248
scalar SlicingScenario.node[1].appl txTimeOfService_SCH_40_19 0
scalar SlicingScenario.node[1].nic.phy80211p busyTime 0.36766695652179
scalar SlicingScenario.node[1].nic.phy80211p ncollisions 0
scalar SlicingScenario.node[1].nic.phy80211p UnderSensitivityPackets 1278
scalar SlicingScenario.node[1].nic.mac1609_4 ReceivedUnicastPackets_CCH 0
scalar SlicingScenario.node[1].nic.mac1609_4 ReceivedBroadcasts_CCH 172
scalar SlicingScenario.node[1].nic.mac1609_4 SentPackets_CCH 0
scalar SlicingScenario.node[1].nic.mac1609_4 SentAcknowledgements_CCH 0
scalar SlicingScenario.node[1].nic.mac1609_4 SNIRLostPackets_CCH 0
scalar SlicingScenario.node[1].nic.mac1609_4 RXTXLostPackets_CCH 0
scalar SlicingScenario.node[1].nic.mac1609_4 TotalLostPackets_CCH 0
scalar SlicingScenario.node[1].nic.mac1609_4 DroppedPacketsInMac_CCH 0
scalar SlicingScenario.node[1].nic.mac1609_4 TooLittleTime_CCH 0
scalar SlicingScenario.node[1].nic.mac1609_4 TimesIntoBackoff_CCH 0
scalar SlicingScenario.node[1].nic.mac1609_4 SlotsBackoff_CCH 0
scalar SlicingScenario.node[1].nic.mac1609_4 NumInternalContention_CCH 0
scalar SlicingScenario.node[1].nic.mac1609_4 RemainingPacketsInEDCA_CCH 0
scalar SlicingScenario.node[1].nic.mac1609_4 totalBusyTime_CCH 0.637513267157
scalar SlicingScenario.node[1].nic.mac1609_4 ReceivedUnicastPackets_SCH 0
scalar SlicingScenario.node[1].nic.mac1609_4 ReceivedBroadcasts_SCH 16885
scalar SlicingScenario.node[1].nic.mac1609_4 SentPackets_SCH 0
scalar SlicingScenario.node[1].nic.mac1609_4 SentAcknowledgements_SCH 0
scalar SlicingScenario.node[1].nic.mac1609_4 SNIRLostPackets_SCH 0
scalar SlicingScenario.node[1].nic.mac1609_4 RXTXLostPackets_SCH 0
scalar SlicingScenario.node[1].nic.mac1609_4 TotalLostPackets_SCH 0
scalar SlicingScenario.node[1].nic.mac1609_4 DroppedPacketsInMac_SCH 0
scalar SlicingScenario.node[1].nic.mac1609_4 TooLittleTime_SCH 0
scalar SlicingScenario.node[1].nic.mac1609_4 TimesIntoBackoff_SCH 0
scalar SlicingScenario.node[1].nic.mac1609_4 SlotsBackoff_SCH 0
scalar SlicingScenario.node[1].nic.mac1609_4 NumInternalContention_SCH 0
scalar SlicingScenario.node[1].nic.mac1609_4 RemainingPacketsInEDCA_SCH 0
scalar SlicingScenario.node[1].nic.mac1609_4 totalBusyTime_SCH 33.49992
scalar SlicingScenario.node[1].veinsmobility startTime 1
scalar SlicingScenario.node[1].veinsmobility totalTime 91
scalar SlicingScenario.node[1].veinsmobility stopTime 93
scalar SlicingScenario.node[1].veinsmobility minSpeed 10.617729806704
scalar SlicingScenario.node[1].veinsmobility maxSpeed 11.103842851836
scalar SlicingScenario.node[1].veinsmobility totalDistance 980.67429459419
scalar SlicingScenario.node[1].veinsmobility totalCO2Emission 158.65618171849
scalar SlicingScenario.node[6].appl txPackets_CCH_49 0
scalar SlicingScenario.node[6].appl rxPackets_CCH_49 0
scalar SlicingScenario.node[6].appl rxNeighborPackets_CCH_49 0
scalar SlicingScenario.node[6].appl meanDelay_CCH_49 0
scalar SlicingScenario.node[6].appl meanJitter_CCH_49 0
scalar SlicingScenario.node[6].appl meanRxPacketSize_CCH_49 0
scalar SlicingScenario.node[6].appl meanTxPacketSize_CCH_49 0
scalar SlicingScenario.node[6].appl meanRxThroughput_CCH_49 0
scalar SlicingScenario.node[6].appl meanTxThroughput_CCH_49 0
scalar SlicingScenario.node[6].appl rxTimeOfService_CCH_49 0
scalar SlicingScenario.node[6].appl txTimeOfService_CCH_49 0
scalar SlicingScenario.node[6].appl txPackets_SCH_40_49 0
scalar SlicingScenario.node[6].appl rxPackets_SCH_40_49 316
scalar SlicingScenario.node[6].appl rxNeighborPackets_SCH_40_49 2413
scalar SlicingScenario.node[6].appl meanDelay_SCH_40_49 28.602373909982
scalar SlicingScenario.node[6].appl meanJitter_SCH_40_49 0.227696040775
scalar SlicingScenario.node[6].appl meanRxPacketSize_SCH_40_49 1510
scalar SlicingScenario.node[6].appl meanTxPacketSize_SCH_40_49 0
scalar SlicingScenario.node[6].appl meanRxThroughput_SCH_40_49 45193.912323331
scalar SlicingScenario.node[6].appl meanTxThroughput_SCH_40_49 0
scalar SlicingScenario.node[6].appl rxTimeOfService_SCH_40_49 84.464473283261
scalar SlicingScenario.node[6].appl txTimeOfService_SCH_40_49 0
scalar SlicingScenario.node[6].nic.phy80211p busyTime 0.37268851612907
scalar SlicingScenario.node[6].nic.phy80211p ncollisions 0
scalar SlicingScenario.node[6].nic.phy80211p UnderSensitivityPackets 1283
scalar SlicingScenario.node[6].nic.mac1609_4 ReceivedUnicastPackets_CCH 0
scalar SlicingScenario.node[6].nic.mac1609_4 ReceivedBroadcasts_CCH 142
scalar SlicingScenario.node[6].nic.mac1609_4 SentPackets_CCH 0
scalar SlicingScenario.node[6].nic.mac1609_4 SentAcknowledgements_CCH 0
scalar SlicingScenario.node[6].nic.mac1609_4 SNIRLostPackets_CCH 0
scalar SlicingScenario.node[6].nic.mac1609_4 RXTXLostPackets_CCH 0
scalar SlicingScenario.node[6].nic.mac1609_4 TotalLostPackets_CCH 0
scalar SlicingScenario.node[6].nic.mac1609_4 DroppedPacketsInMac_CCH 0
scalar SlicingScenario.node[6].nic.mac1609_4 TooLittleTime_CCH 0
scalar SlicingScenario.node[6].nic.mac1609_4 TimesIntoBackoff_CCH 0
scalar SlicingScenario.node[6].nic.mac1609_4 SlotsBackoff_CCH 0
scalar SlicingScenario.node[6].nic.mac1609_4 NumInternalContention_CCH 0
scalar SlicingScenario.node[6].nic.mac1609_4 RemainingPacketsInEDCA_CCH 0
scalar SlicingScenario.node[6].nic.mac1609_4 totalBusyTime_CCH 0.531680896058
scalar SlicingScenario.node[6].nic.mac1609_4 ReceivedUnicastPackets_SCH 0
scalar SlicingScenario.node[6].nic.mac1609_4 ReceivedBroadcasts_SCH 17336
scalar SlicingScenario.node[6].nic.mac1609_4 SentPackets_SCH 0
scalar SlicingScenario.node[6].nic.mac1609_4 SentAcknowledgements_SCH 0
scalar SlicingScenario.node[6].nic.mac1609_4 SNIRLostPackets_SCH 0
scalar SlicingScenario.node[6].nic.mac1609_4 RXTXLostPackets_SCH 0
scalar SlicingScenario.node[6].nic.mac1609_4 TotalLostPackets_SCH 0
scalar SlicingScenario.node[6].nic.mac1609_4 DroppedPacketsInMac_SCH 0
scalar SlicingScenario.node[6].nic.mac1609_4 TooLittleTime_SCH 0
scalar SlicingScenario.node[6].nic.mac1609_4 TimesIntoBackoff_SCH 0
scalar SlicingScenario.node[6].nic.mac1609_4 SlotsBackoff_SCH 0
scalar SlicingScenario.node[6].nic.mac1609_4 NumInternalContention_SCH 0
scalar SlicingScenario.node[6].nic.mac1609_4 RemainingPacketsInEDCA_SCH 0
scalar SlicingScenario.node[6].nic.mac1609_4 totalBusyTime_SCH 34.389792
scalar SlicingScenario.node[6].veinsmobility startTime 2
scalar SlicingScenario.node[6].veinsmobility totalTime 92
scalar SlicingScenario.node[6].veinsmobility stopTime 95
scalar SlicingScenario.node[6].veinsmobility minSpeed 7.5356294552777
scalar SlicingScenario.node[6].veinsmobility maxSpeed 11.106998063521
scalar SlicingScenario.node[6].veinsmobility totalDistance 981.10439797967
scalar SlicingScenario.node[6].veinsmobility totalCO2Emission 168.1402434663
scalar SlicingScenario.node[4].appl txPackets_CCH_37 0
scalar SlicingScenario.node[4].appl rxPackets_CCH_37 0
scalar SlicingScenario.node[4].appl rxNeighborPackets_CCH_37 0
scalar SlicingScenario.node[4].appl meanDelay_CCH_37 0
scalar SlicingScenario.node[4].appl meanJitter_CCH_37 0
scalar SlicingScenario.node[4].appl meanRxPacketSize_CCH_37 0
scalar SlicingScenario.node[4].appl meanTxPacketSize_CCH_37 0
scalar SlicingScenario.node[4].appl meanRxThroughput_CCH_37 0
scalar SlicingScenario.node[4].appl meanTxThroughput_CCH_37 0
scalar SlicingScenario.node[4].appl rxTimeOfService_CCH_37 0
scalar SlicingScenario.node[4].appl txTimeOfService_CCH_37 0
scalar SlicingScenario.node[4].appl txPackets_SCH_41_37 0
scalar SlicingScenario.node[4].appl rxPackets_SCH_41_37 2142
scalar SlicingScenario.node[4].appl rxNeighborPackets_SCH_41_37 12607
scalar SlicingScenario.node[4].appl meanDelay_SCH_41_37 29.520278894105
scalar SlicingScenario.node[4].appl meanJitter_SCH_41_37 0.033506107488
scalar SlicingScenario.node[4].appl meanRxPacketSize_SCH_41_37 1438
scalar SlicingScenario.node[4].appl meanTxPacketSize_SCH_41_37 0
scalar SlicingScenario.node[4].appl meanRxThroughput_SCH_41_37 295153.27705763
scalar SlicingScenario.node[4].appl meanTxThroughput_SCH_41_37 0
scalar SlicingScenario.node[4].appl rxTimeOfService_SCH_41_37 83.520536331999
scalar SlicingScenario.node[4].appl txTimeOfService_SCH_41_37 0
scalar SlicingScenario.node[4].nic.phy80211p busyTime 0.37268851612907
scalar SlicingScenario.node[4].nic.phy80211p ncollisions 0
scalar SlicingScenario.node[4].nic.phy80211p UnderSensitivityPackets 1283
scalar SlicingScenario.node[4].nic.mac1609_4 ReceivedUnicastPackets_CCH 0
scalar SlicingScenario.node[4].nic.mac1609_4 ReceivedBroadcasts_CCH 0
scalar SlicingScenario.node[4].nic.mac1609_4 SentPackets_CCH 0
scalar SlicingScenario.node[4].nic.mac1609_4 SentAcknowledgements_CCH 0
scalar SlicingScenario.node[4].nic.mac1609_4 SNIRLostPackets_CCH 0
scalar SlicingScenario.node[4].nic.mac1609_4 RXTXLostPackets_CCH 0
scalar SlicingScenario.node[4].nic.mac1609_4 TotalLostPackets_CCH 0
scalar SlicingScenario.node[4].nic.mac1609_4 DroppedPacketsInMac_CCH 0
scalar SlicingScenario.node[4].nic.mac1609_4 TooLittleTime_CCH 0
scalar SlicingScenario.node[4].nic.mac1609_4 TimesIntoBackoff_CCH 0
scalar SlicingScenario.node[4].nic.mac1609_4 SlotsBackoff_CCH 0
scalar SlicingScenario.node[4].nic.mac1609_4 NumInternalContention_CCH 0
scalar SlicingScenario.node[4].nic.mac1609_4 RemainingPacketsInEDCA_CCH 0
scalar SlicingScenario.node[4].nic.mac1609_4 totalBusyTime_CCH 0
scalar SlicingScenario.node[4].nic.mac1609_4 ReceivedUnicastPackets_SCH 0
scalar SlicingScenario.node[4].nic.mac1609_4 ReceivedBroadcasts_SCH 17478
scalar SlicingScenario.node[4].nic.mac1609_4 SentPackets_SCH 0
scalar SlicingScenario.node[4].nic.mac1609_4 SentAcknowledgements_SCH 0
scalar SlicingScenario.node[4].nic.mac1609_4 SNIRLostPackets_SCH 0
scalar SlicingScenario.node[4].nic.mac1609_4 RXTXLostPackets_SCH 0
scalar SlicingScenario.node[4].nic.mac1609_4 TotalLostPackets_SCH 0
scalar SlicingScenario.node[4].nic.mac1609_4 DroppedPacketsInMac_SCH 0
scalar SlicingScenario.node[4].nic.mac1609_4 TooLittleTime_SCH 0
scalar SlicingScenario.node[4].nic.mac1609_4 TimesIntoBackoff_SCH 0
scalar SlicingScenario.node[4].nic.mac1609_4 SlotsBackoff_SCH 0
scalar SlicingScenario.node[4].nic.mac1609_4 NumInternalContention_SCH 0
scalar SlicingScenario.node[4].nic.mac1609_4 RemainingPacketsInEDCA_SCH 0
scalar SlicingScenario.node[4].nic.mac1609_4 totalBusyTime_SCH 34.660032
scalar SlicingScenario.node[4].veinsmobility startTime 2
scalar SlicingScenario.node[4].veinsmobility totalTime 92
scalar SlicingScenario.node[4].veinsmobility stopTime 95
scalar SlicingScenario.node[4].veinsmobility minSpeed 8.2675258050305
scalar SlicingScenario.node[4].veinsmobility maxSpeed 11.104600450969
scalar SlicingScenario.node[4].veinsmobility totalDistance 982.10258650078
scalar SlicingScenario.node[4].veinsmobility totalCO2Emission 165.93938241199
scalar SlicingScenario.node[5].appl txPackets_CCH_43 0
scalar SlicingScenario.node[5].appl rxPackets_CCH_43 0
scalar SlicingScenario.node[5].appl rxNeighborPackets_CCH_43 0
scalar SlicingScenario.node[5].appl meanDelay_CCH_43 0
scalar SlicingScenario.node[5].appl meanJitter_CCH_43 0
scalar SlicingScenario.node[5].appl meanRxPacketSize_CCH_43 0
scalar SlicingScenario.node[5].appl meanTxPacketSize_CCH_43 0
scalar SlicingScenario.node[5].appl meanRxThroughput_CCH_43 0
scalar SlicingScenario.node[5].appl meanTxThroughput_CCH_43 0
scalar SlicingScenario.node[5].appl rxTimeOfService_CCH_43 0
scalar SlicingScenario.node[5].appl txTimeOfService_CCH_43 0
scalar SlicingScenario.node[5].appl txPackets_SCH_41_43 0
scalar SlicingScenario.node[5].appl rxPackets_SCH_41_43 2280
scalar SlicingScenario.node[5].appl rxNeighborPackets_SCH_41_43 12469
scalar SlicingScenario.node[5].appl meanDelay_SCH_41_43 27.651561850754
scalar SlicingScenario.node[5].appl meanJitter_SCH_41_43 0.031513405173
scalar SlicingScenario.node[5].appl meanRxPacketSize_SCH_41_43 1438
scalar SlicingScenario.node[5].appl meanTxPacketSize_SCH_41_43 0
scalar SlicingScenario.node[5].appl meanRxThroughput_SCH_41_43 307710.64576249
scalar SlicingScenario.node[5].appl meanTxThroughput_SCH_41_43 0
scalar SlicingScenario.node[5].appl rxTimeOfService_SCH_41_43 85.282717258522
scalar SlicingScenario.node[5].appl txTimeOfService_SCH_41_43 0
scalar SlicingScenario.node[5].nic.phy80211p busyTime 0.37268851612907
scalar SlicingScenario.node[5].nic.phy80211p ncollisions 0
scalar SlicingScenario.node[5].nic.phy80211p UnderSensitivityPackets 1283
scalar SlicingScenario.node[5].nic.mac1609_4 ReceivedUnicastPackets_CCH 0
scalar SlicingScenario.node[5].nic.mac1609_4 ReceivedBroadcasts_CCH 81
scalar SlicingScenario.node[5].nic.mac1609_4 SentPackets_CCH 0
scalar SlicingScenario.node[5].nic.mac1609_4 SentAcknowledgements_CCH 0
scalar SlicingScenario.node[5].nic.mac1609_4 SNIRLostPackets_CCH 0
scalar SlicingScenario.node[5].nic.mac1609_4 RXTXLostPackets_CCH 0
scalar SlicingScenario.node[5].nic.mac1609_4 TotalLostPackets_CCH 0
scalar SlicingScenario.node[5].nic.mac1609_4 DroppedPacketsInMac_CCH 0
scalar SlicingScenario.node[5].nic.mac1609_4 TooLittleTime_CCH 0
scalar SlicingScenario.node[5].nic.mac1609_4 TimesIntoBackoff_CCH 0
scalar SlicingScenario.node[5].nic.mac1609_4 SlotsBackoff_CCH 0
scalar SlicingScenario.node[5].nic.mac1609_4 NumInternalContention_CCH 0
scalar SlicingScenario.node[5].nic.mac1609_4 RemainingPacketsInEDCA_CCH 0
scalar SlicingScenario.node[5].nic.mac1609_4 totalBusyTime_CCH 0.304342098035
scalar SlicingScenario.node[5].nic.mac1609_4 ReceivedUnicastPackets_SCH 0
scalar SlicingScenario.node[5].nic.mac1609_4 ReceivedBroadcasts_SCH 17397
scalar SlicingScenario.node[5].nic.mac1609_4 SentPackets_SCH 0
scalar SlicingScenario.node[5].nic.mac1609_4 SentAcknowledgements_SCH 0
scalar SlicingScenario.node[5].nic.mac1609_4 SNIRLostPackets_SCH 0
scalar SlicingScenario.node[5].nic.mac1609_4 RXTXLostPackets_SCH 0
scalar SlicingScenario.node[5].nic.mac1609_4 TotalLostPackets_SCH 0
scalar SlicingScenario.node[5].nic.mac1609_4 DroppedPacketsInMac_SCH 0
scalar SlicingScenario.node[5].nic.mac1609_4 TooLittleTime_SCH 0
scalar SlicingScenario.node[5].nic.mac1609_4 TimesIntoBackoff_SCH 0
scalar SlicingScenario.node[5].nic.mac1609_4 SlotsBackoff_SCH 0
scalar SlicingScenario.node[5].nic.mac1609_4 NumInternalContention_SCH 0
scalar SlicingScenario.node[5].nic.mac1609_4 RemainingPacketsInEDCA_SCH 0
scalar SlicingScenario.node[5].nic.mac1609_4 totalBusyTime_SCH 34.506288
scalar SlicingScenario.node[5].veinsmobility startTime 2
scalar SlicingScenario.node[5].veinsmobility totalTime 92
scalar SlicingScenario.node[5].veinsmobility stopTime 95
scalar SlicingScenario.node[5].veinsmobility minSpeed 8.0834868774847
scalar SlicingScenario.node[5].veinsmobility maxSpeed 11.10429635494
scalar SlicingScenario.node[5].veinsmobility totalDistance 981.7341585349
scalar SlicingScenario.node[5].veinsmobility totalCO2Emission 166.08197373729
scalar SlicingScenario.node[7].appl txPackets_CCH_55 0
scalar SlicingScenario.node[7].appl rxPackets_CCH_55 0
scalar SlicingScenario.node[7].appl rxNeighborPackets_CCH_55 0
scalar SlicingScenario.node[7].appl meanDelay_CCH_55 0
scalar SlicingScenario.node[7].appl meanJitter_CCH_55 0
scalar SlicingScenario.node[7].appl meanRxPacketSize_CCH_55 0
scalar SlicingScenario.node[7].appl meanTxPacketSize_CCH_55 0
scalar SlicingScenario.node[7].appl meanRxThroughput_CCH_55 0
scalar SlicingScenario.node[7].appl meanTxThroughput_CCH_55 0
scalar SlicingScenario.node[7].appl rxTimeOfService_CCH_55 0
scalar SlicingScenario.node[7].appl txTimeOfService_CCH_55 0
scalar SlicingScenario.node[7].appl txPackets_SCH_40_55 0
scalar SlicingScenario.node[7].appl rxPackets_SCH_40_55 327
scalar SlicingScenario.node[7].appl rxNeighborPackets_SCH_40_55 2402
scalar SlicingScenario.node[7].appl meanDelay_SCH_40_55 27.763639279082
scalar SlicingScenario.node[7].appl meanJitter_SCH_40_55 0.219805246401
scalar SlicingScenario.node[7].appl meanRxPacketSize_SCH_40_55 1510
scalar SlicingScenario.node[7].appl meanTxPacketSize_SCH_40_55 0
scalar SlicingScenario.node[7].appl meanRxThroughput_SCH_40_55 46314.896269392
scalar SlicingScenario.node[7].appl meanTxThroughput_SCH_40_55 0
scalar SlicingScenario.node[7].appl rxTimeOfService_SCH_40_55 85.289190264483
scalar SlicingScenario.node[7].appl txTimeOfService_SCH_40_55 0
scalar SlicingScenario.node[7].nic.phy80211p busyTime 0.37268851612907
scalar SlicingScenario.node[7].nic.phy80211p ncollisions 0
scalar SlicingScenario.node[7].nic.phy80211p UnderSensitivityPackets 1283
scalar SlicingScenario.node[7].nic.mac1609_4 ReceivedUnicastPackets_CCH 0
scalar SlicingScenario.node[7].nic.mac1609_4 ReceivedBroadcasts_CCH 157
scalar SlicingScenario.node[7].nic.mac1609_4 SentPackets_CCH 0
scalar SlicingScenario.node[7].nic.mac1609_4 SentAcknowledgements_CCH 0
scalar SlicingScenario.node[7].nic.mac1609_4 SNIRLostPackets_CCH 0
scalar SlicingScenario.node[7].nic.mac1609_4 RXTXLostPackets_CCH 0
scalar SlicingScenario.node[7].nic.mac1609_4 TotalLostPackets_CCH 0
scalar SlicingScenario.node[7].nic.mac1609_4 DroppedPacketsInMac_CCH 0
scalar SlicingScenario.node[7].nic.mac1609_4 TooLittleTime_CCH 0
scalar SlicingScenario.node[7].nic.mac1609_4 TimesIntoBackoff_CCH 0
scalar SlicingScenario.node[7].nic.mac1609_4 SlotsBackoff_CCH 0
scalar SlicingScenario.node[7].nic.mac1609_4 NumInternalContention_CCH 0
scalar SlicingScenario.node[7].nic.mac1609_4 RemainingPacketsInEDCA_CCH 0
scalar SlicingScenario.node[7].nic.mac1609_4 totalBusyTime_CCH 0.583215630877
scalar SlicingScenario.node[7].nic.mac1609_4 ReceivedUnicastPackets_SCH 0
scalar SlicingScenario.node[7].nic.mac1609_4 ReceivedBroadcasts_SCH 17321
scalar SlicingScenario.node[7].nic.mac1609_4 SentPackets_SCH 0
scalar SlicingScenario.node[7].nic.mac1609_4 SentAcknowledgements_SCH 0
scalar SlicingScenario.node[7].nic.mac1609_4 SNIRLostPackets_SCH 0
scalar SlicingScenario.node[7].nic.mac1609_4 RXTXLostPackets_SCH 0
scalar SlicingScenario.node[7].nic.mac1609_4 TotalLostPackets_SCH 0
scalar SlicingScenario.node[7].nic.mac1609_4 DroppedPacketsInMac_SCH 0
scalar SlicingScenario.node[7].nic.mac1609_4 TooLittleTime_SCH 0
scalar SlicingScenario.node[7].nic.mac1609_4 TimesIntoBackoff_SCH 0
scalar SlicingScenario.node[7].nic.mac1609_4 SlotsBackoff_SCH 0
scalar SlicingScenario.node[7].nic.mac1609_4 NumInternalContention_SCH 0
scalar SlicingScenario.node[7].nic.mac1609_4 RemainingPacketsInEDCA_SCH 0
scalar SlicingScenario.node[7].nic.mac1609_4 totalBusyTime_SCH 34.362864
scalar SlicingScenario.node[7].veinsmobility startTime 2
scalar SlicingScenario.node[7].veinsmobility totalTime 92
scalar SlicingScenario.node[7].veinsmobility stopTime 95
scalar SlicingScenario.node[7].veinsmobility minSpeed 8.4328466256713
scalar SlicingScenario.node[7].veinsmobility maxSpeed 11.104019034551
scalar SlicingScenario.node[7].veinsmobility totalDistance 982.72685517005
scalar SlicingScenario.node[7].veinsmobility totalCO2Emission 167.43680114761
scalar SlicingScenario.node[8].appl txPackets_CCH_61 0
scalar SlicingScenario.node[8].appl rxPackets_CCH_61 0
scalar SlicingScenario.node[8].appl rxNeighborPackets_CCH_61 0
scalar SlicingScenario.node[8].appl meanDelay_CCH_61 0
scalar SlicingScenario.node[8].appl meanJitter_CCH_61 0
scalar SlicingScenario.node[8].appl meanRxPacketSize_CCH_61 0
scalar SlicingScenario.node[8].appl meanTxPacketSize_CCH_61 0
scalar SlicingScenario.node[8].appl meanRxThroughput_CCH_61 0
scalar SlicingScenario.node[8].appl meanTxThroughput_CCH_61 0
scalar SlicingScenario.node[8].appl rxTimeOfService_CCH_61 0
scalar SlicingScenario.node[8].appl txTimeOfService_CCH_61 0
scalar SlicingScenario.node[8].appl txPackets_SCH_41_61 0
scalar SlicingScenario.node[8].appl rxPackets_SCH_41_61 1859
scalar SlicingScenario.node[8].appl rxNeighborPackets_SCH_41_61 12912
scalar SlicingScenario.node[8].appl meanDelay_SCH_41_61 33.983668408071
scalar SlicingScenario.node[8].appl meanJitter_SCH_41_61 0.039573829443
scalar SlicingScenario.node[8].appl meanRxPacketSize_SCH_41_61 1438
scalar SlicingScenario.node[8].appl meanTxPacketSize_SCH_41_61 0
scalar SlicingScenario.node[8].appl meanRxThroughput_SCH_41_61 264262.00330379
scalar SlicingScenario.node[8].appl meanTxThroughput_SCH_41_61 0
scalar SlicingScenario.node[8].appl rxTimeOfService_SCH_41_61 80.967826371175
scalar SlicingScenario.node[8].appl txTimeOfService_SCH_41_61 0
scalar SlicingScenario.node[8].nic.phy80211p busyTime 0.36878297872344
scalar SlicingScenario.node[8].nic.phy80211p ncollisions 0
scalar SlicingScenario.node[8].nic.phy80211p UnderSensitivityPackets 1709
scalar SlicingScenario.node[8].nic.mac1609_4 ReceivedUnicastPackets_CCH 0
scalar SlicingScenario.node[8].nic.mac1609_4 ReceivedBroadcasts_CCH 82
scalar SlicingScenario.node[8].nic.mac1609_4 SentPackets_CCH 0
scalar SlicingScenario.node[8].nic.mac1609_4 SentAcknowledgements_CCH 0
scalar SlicingScenario.node[8].nic.mac1609_4 SNIRLostPackets_CCH 0
scalar SlicingScenario.node[8].nic.mac1609_4 RXTXLostPackets_CCH 0
scalar SlicingScenario.node[8].nic.mac1609_4 TotalLostPackets_CCH 0
scalar SlicingScenario.node[8].nic.mac1609_4 DroppedPacketsInMac_CCH 0
scalar SlicingScenario.node[8].nic.mac1609_4 TooLittleTime_CCH 0
scalar SlicingScenario.node[8].nic.mac1609_4 TimesIntoBackoff_CCH 0
scalar SlicingScenario.node[8].nic.mac1609_4 SlotsBackoff_CCH 0
scalar SlicingScenario.node[8].nic.mac1609_4 NumInternalContention_CCH 0
scalar SlicingScenario.node[8].nic.mac1609_4 RemainingPacketsInEDCA_CCH 0
scalar SlicingScenario.node[8].nic.mac1609_4 totalBusyTime_CCH 0.310033179466
scalar SlicingScenario.node[8].nic.mac1609_4 ReceivedUnicastPackets_SCH 0
scalar SlicingScenario.node[8].nic.mac1609_4 ReceivedBroadcasts_SCH 17400
scalar SlicingScenario.node[8].nic.mac1609_4 SentPackets_SCH 0
scalar SlicingScenario.node[8].nic.mac1609_4 SentAcknowledgements_SCH 0
scalar SlicingScenario.node[8].nic.mac1609_4 SNIRLostPackets_SCH 0
scalar SlicingScenario.node[8].nic.mac1609_4 RXTXLostPackets_SCH 0
scalar SlicingScenario.node[8].nic.mac1609_4 TotalLostPackets_SCH 0
scalar SlicingScenario.node[8].nic.mac1609_4 DroppedPacketsInMac_SCH 0
scalar SlicingScenario.node[8].nic.mac1609_4 TooLittleTime_SCH 0
scalar SlicingScenario.node[8].nic.mac1609_4 TimesIntoBackoff_SCH 0
scalar SlicingScenario.node[8].nic.mac1609_4 SlotsBackoff_SCH 0
scalar SlicingScenario.node[8].nic.mac1609_4 NumInternalContention_SCH 0
scalar SlicingScenario.node[8].nic.mac1609_4 RemainingPacketsInEDCA_SCH 0
scalar SlicingScenario.node[8].nic.mac1609_4 totalBusyTime_SCH 34.50912
scalar SlicingScenario.node[8].veinsmobility startTime 3
scalar SlicingScenario.node[8].veinsmobility totalTime 93
scalar SlicingScenario.node[8].veinsmobility stopTime 97
scalar SlicingScenario.node[8].veinsmobility minSpeed 5.2254872838487
scalar SlicingScenario.node[8].veinsmobility maxSpeed 11.102188240285
scalar SlicingScenario.node[8].veinsmobility totalDistance 977.4333429509
scalar SlicingScenario.node[8].veinsmobility totalCO2Emission 174.26777621882
scalar SlicingScenario.node[9].appl txPackets_CCH_67 0
scalar SlicingScenario.node[9].appl rxPackets_CCH_67 0
scalar SlicingScenario.node[9].appl rxNeighborPackets_CCH_67 0
scalar SlicingScenario.node[9].appl meanDelay_CCH_67 0
scalar SlicingScenario.node[9].appl meanJitter_CCH_67 0
scalar SlicingScenario.node[9].appl meanRxPacketSize_CCH_67 0
scalar SlicingScenario.node[9].appl meanTxPacketSize_CCH_67 0
scalar SlicingScenario.node[9].appl meanRxThroughput_CCH_67 0
scalar SlicingScenario.node[9].appl meanTxThroughput_CCH_67 0
scalar SlicingScenario.node[9].appl rxTimeOfService_CCH_67 0
scalar SlicingScenario.node[9].appl txTimeOfService_CCH_67 0
scalar SlicingScenario.node[9].appl txPackets_SCH_40_67 0
scalar SlicingScenario.node[9].appl rxPackets_SCH_40_67 262
scalar SlicingScenario.node[9].appl rxNeighborPackets_SCH_40_67 2516
scalar SlicingScenario.node[9].appl meanDelay_SCH_40_67 35.266715127129
scalar SlicingScenario.node[9].appl meanJitter_SCH_40_67 0.285555176714
scalar SlicingScenario.node[9].appl meanRxPacketSize_SCH_40_67 1510
scalar SlicingScenario.node[9].appl meanTxPacketSize_SCH_40_67 0
scalar SlicingScenario.node[9].appl meanRxThroughput_SCH_40_67 39573.399409606
scalar SlicingScenario.node[9].appl meanTxThroughput_SCH_40_67 0
scalar SlicingScenario.node[9].appl rxTimeOfService_SCH_40_67 79.976955409895
scalar SlicingScenario.node[9].appl txTimeOfService_SCH_40_67 0
scalar SlicingScenario.node[9].nic.phy80211p busyTime 0.37389018947371
scalar SlicingScenario.node[9].nic.phy80211p ncollisions 0
scalar SlicingScenario.node[9].nic.phy80211p UnderSensitivityPackets 1493
scalar SlicingScenario.node[9].nic.mac1609_4 ReceivedUnicastPackets_CCH 0
scalar SlicingScenario.node[9].nic.mac1609_4 ReceivedBroadcasts_CCH 36
scalar SlicingScenario.node[9].nic.mac1609_4 SentPackets_CCH 0
scalar SlicingScenario.node[9].nic.mac1609_4 SentAcknowledgements_CCH 0
scalar SlicingScenario.node[9].nic.mac1609_4 SNIRLostPackets_CCH 0
scalar SlicingScenario.node[9].nic.mac1609_4 RXTXLostPackets_CCH 0
scalar SlicingScenario.node[9].nic.mac1609_4 TotalLostPackets_CCH 0
scalar SlicingScenario.node[9].nic.mac1609_4 DroppedPacketsInMac_CCH 0
scalar SlicingScenario.node[9].nic.mac1609_4 TooLittleTime_CCH 0
scalar SlicingScenario.node[9].nic.mac1609_4 TimesIntoBackoff_CCH 0
scalar SlicingScenario.node[9].nic.mac1609_4 SlotsBackoff_CCH 0
scalar SlicingScenario.node[9].nic.mac1609_4 NumInternalContention_CCH 0
scalar SlicingScenario.node[9].nic.mac1609_4 RemainingPacketsInEDCA_CCH 0
scalar SlicingScenario.node[9].nic.mac1609_4 totalBusyTime_CCH 0.129363701317
scalar SlicingScenario.node[9].nic.mac1609_4 ReceivedUnicastPackets_SCH 0
scalar SlicingScenario.node[9].nic.mac1609_4 ReceivedBroadcasts_SCH 17876
scalar SlicingScenario.node[9].nic.mac1609_4 SentPackets_SCH 0
scalar SlicingScenario.node[9].nic.mac1609_4 SentAcknowledgements_SCH 0
scalar SlicingScenario.node[9].nic.mac1609_4 SNIRLostPackets_SCH 0
scalar SlicingScenario.node[9].nic.mac1609_4 RXTXLostPackets_SCH 0
scalar SlicingScenario.node[9].nic.mac1609_4 TotalLostPackets_SCH 0
scalar SlicingScenario.node[9].nic.mac1609_4 DroppedPacketsInMac_SCH 0
scalar SlicingScenario.node[9].nic.mac1609_4 TooLittleTime_SCH 0
scalar SlicingScenario.node[9].nic.mac1609_4 TimesIntoBackoff_SCH 0
scalar SlicingScenario.node[9].nic.mac1609_4 SlotsBackoff_SCH 0
scalar SlicingScenario.node[9].nic.mac1609_4 NumInternalContention_SCH 0
scalar SlicingScenario.node[9].nic.mac1609_4 RemainingPacketsInEDCA_SCH 0
scalar SlicingScenario.node[9].nic.mac1609_4 totalBusyTime_SCH 35.452608
scalar SlicingScenario.node[9].veinsmobility startTime 3
scalar SlicingScenario.node[9].veinsmobility totalTime 94
scalar SlicingScenario.node[9].veinsmobility stopTime 98
scalar SlicingScenario.node[9].veinsmobility minSpeed 3.7340670712497
scalar SlicingScenario.node[9].veinsmobility maxSpeed 11.105529982378
scalar SlicingScenario.node[9].veinsmobility totalDistance 977.86892548072
scalar SlicingScenario.node[9].veinsmobility totalCO2Emission 174.98553606849
scalar SlicingScenario.node[10].appl txPackets_CCH_73 0
scalar SlicingScenario.node[10].appl rxPackets_CCH_73 0
scalar SlicingScenario.node[10].appl rxNeighborPackets_CCH_73 0
scalar SlicingScenario.node[10].appl meanDelay_CCH_73 0
scalar SlicingScenario.node[10].appl meanJitter_CCH_73 0
scalar SlicingScenario.node[10].appl meanRxPacketSize_CCH_73 0
scalar SlicingScenario.node[10].appl meanTxPacketSize_CCH_73 0
scalar SlicingScenario.node[10].appl meanRxThroughput_CCH_73 0
scalar SlicingScenario.node[10].appl meanTxThroughput_CCH_73 0
scalar SlicingScenario.node[10].appl rxTimeOfService_CCH_73 0
scalar SlicingScenario.node[10].appl txTimeOfService_CCH_73 0
scalar SlicingScenario.node[10].appl txPackets_SCH_40_73 0
scalar SlicingScenario.node[10].appl rxPackets_SCH_40_73 266
scalar SlicingScenario.node[10].appl rxNeighborPackets_SCH_40_73 2505
scalar SlicingScenario.node[10].appl meanDelay_SCH_40_73 34.924382128113
scalar SlicingScenario.node[10].appl meanJitter_SCH_40_73 0.280537871106
scalar SlicingScenario.node[10].appl meanRxPacketSize_SCH_40_73 1510
scalar SlicingScenario.node[10].appl meanTxPacketSize_SCH_40_73 0
scalar SlicingScenario.node[10].appl meanRxThroughput_SCH_40_73 39619.038663758
scalar SlicingScenario.node[10].appl meanTxThroughput_SCH_40_73 0
scalar SlicingScenario.node[10].appl rxTimeOfService_SCH_40_73 81.104441409361
scalar SlicingScenario.node[10].appl txTimeOfService_SCH_40_73 0
scalar SlicingScenario.node[10].nic.phy80211p busyTime 0.37386846315792
scalar SlicingScenario.node[10].nic.phy80211p ncollisions 0
scalar SlicingScenario.node[10].nic.phy80211p UnderSensitivityPackets 1494
scalar SlicingScenario.node[10].nic.mac1609_4 ReceivedUnicastPackets_CCH 0
scalar SlicingScenario.node[10].nic.mac1609_4 ReceivedBroadcasts_CCH 71
scalar SlicingScenario.node[10].nic.mac1609_4 SentPackets_CCH 0
scalar SlicingScenario.node[10].nic.mac1609_4 SentAcknowledgements_CCH 0
scalar SlicingScenario.node[10].nic.mac1609_4 SNIRLostPackets_CCH 0
scalar SlicingScenario.node[10].nic.mac1609_4 RXTXLostPackets_CCH 0
scalar SlicingScenario.node[10].nic.mac1609_4 TotalLostPackets_CCH 0
scalar SlicingScenario.node[10].nic.mac1609_4 DroppedPacketsInMac_CCH 0
scalar SlicingScenario.node[10].nic.mac1609_4 TooLittleTime_CCH 0
scalar SlicingScenario.node[10].nic.mac1609_4 TimesIntoBackoff_CCH 0
scalar SlicingScenario.node[10].nic.mac1609_4 SlotsBackoff_CCH 0
scalar SlicingScenario.node[10].nic.mac1609_4 NumInternalContention_CCH 0
scalar SlicingScenario.node[10].nic.mac1609_4 RemainingPacketsInEDCA_CCH 0
scalar SlicingScenario.node[10].nic.mac1609_4 totalBusyTime_CCH 0.268516142485
scalar SlicingScenario.node[10].nic.mac1609_4 ReceivedUnicastPackets_SCH 0
scalar SlicingScenario.node[10].nic.mac1609_4 ReceivedBroadcasts_SCH 17840
scalar SlicingScenario.node[10].nic.mac1609_4 SentPackets_SCH 0
scalar SlicingScenario.node[10].nic.mac1609_4 SentAcknowledgements_SCH 0
scalar SlicingScenario.node[10].nic.mac1609_4 SNIRLostPackets_SCH 0
scalar SlicingScenario.node[10].nic.mac1609_4 RXTXLostPackets_SCH 0
scalar SlicingScenario.node[10].nic.mac1609_4 TotalLostPackets_SCH 0
scalar SlicingScenario.node[10].nic.mac1609_4 DroppedPacketsInMac_SCH 0
scalar SlicingScenario.node[10].nic.mac1609_4 TooLittleTime_SCH 0
scalar SlicingScenario.node[10].nic.mac1609_4 TimesIntoBackoff_SCH 0
scalar SlicingScenario.node[10].nic.mac1609_4 SlotsBackoff_SCH 0
scalar SlicingScenario.node[10].nic.mac1609_4 NumInternalContention_SCH 0
scalar SlicingScenario.node[10].nic.mac1609_4 RemainingPacketsInEDCA_SCH 0
scalar SlicingScenario.node[10].nic.mac1609_4 totalBusyTime_SCH 35.38032
scalar SlicingScenario.node[10].veinsmobility startTime 3
scalar SlicingScenario.node[10].veinsmobility totalTime 94
scalar SlicingScenario.node[10].veinsmobility stopTime 98
scalar SlicingScenario.node[10].veinsmobility minSpeed 4.8625612052376
scalar SlicingScenario.node[10].veinsmobility maxSpeed 11.105364547707
scalar SlicingScenario.node[10].veinsmobility totalDistance 983.28515293781
scalar SlicingScenario.node[10].veinsmobility totalCO2Emission 175.70424290116
scalar SlicingScenario.node[11].appl txPackets_CCH_79 0
scalar SlicingScenario.node[11].appl rxPackets_CCH_79 0
scalar SlicingScenario.node[11].appl rxNeighborPackets_CCH_79 0
scalar SlicingScenario.node[11].appl meanDelay_CCH_79 0
scalar SlicingScenario.node[11].appl meanJitter_CCH_79 0
scalar SlicingScenario.node[11].appl meanRxPacketSize_CCH_79 0
scalar SlicingScenario.node[11].appl meanTxPacketSize_CCH_79 0
scalar SlicingScenario.node[11].appl meanRxThroughput_CCH_79 0
scalar SlicingScenario.node[11].appl meanTxThroughput_CCH_79 0
scalar SlicingScenario.node[11].appl rxTimeOfService_CCH_79 0
scalar SlicingScenario.node[11].appl txTimeOfService_CCH_79 0
scalar SlicingScenario.node[11].appl txPackets_SCH_41_79 0
scalar SlicingScenario.node[11].appl rxPackets_SCH_41_79 1862
scalar SlicingScenario.node[11].appl rxNeighborPackets_SCH_41_79 13278
scalar SlicingScenario.node[11].appl meanDelay_SCH_41_79 34.950752912486
scalar SlicingScenario.node[11].appl meanJitter_SCH_41_79 0.039962217239
scalar SlicingScenario.node[11].appl meanRxPacketSize_SCH_41_79 1438
scalar SlicingScenario.node[11].appl meanTxPacketSize_SCH_41_79 0
scalar SlicingScenario.node[11].appl meanRxThroughput_SCH_41_79 264126.25627377
scalar SlicingScenario.node[11].appl meanTxThroughput_SCH_41_79 0
scalar SlicingScenario.node[11].appl rxTimeOfService_SCH_41_79 81.13150241977
scalar SlicingScenario.node[11].appl txTimeOfService_SCH_41_79 0
scalar SlicingScenario.node[11].nic.phy80211p busyTime 0.37386846315792
scalar SlicingScenario.node[11].nic.phy80211p ncollisions 0
scalar SlicingScenario.node[11].nic.phy80211p UnderSensitivityPackets 1494
scalar SlicingScenario.node[11].nic.mac1609_4 ReceivedUnicastPackets_CCH 0
scalar SlicingScenario.node[11].nic.mac1609_4 ReceivedBroadcasts_CCH 171
scalar SlicingScenario.node[11].nic.mac1609_4 SentPackets_CCH 0
scalar SlicingScenario.node[11].nic.mac1609_4 SentAcknowledgements_CCH 0
scalar SlicingScenario.node[11].nic.mac1609_4 SNIRLostPackets_CCH 0
scalar SlicingScenario.node[11].nic.mac1609_4 RXTXLostPackets_CCH 0
scalar SlicingScenario.node[11].nic.mac1609_4 TotalLostPackets_CCH 0
scalar SlicingScenario.node[11].nic.mac1609_4 DroppedPacketsInMac_CCH 0
scalar SlicingScenario.node[11].nic.mac1609_4 TooLittleTime_CCH 0
scalar SlicingScenario.node[11].nic.mac1609_4 TimesIntoBackoff_CCH 0
scalar SlicingScenario.node[11].nic.mac1609_4 SlotsBackoff_CCH 0
scalar SlicingScenario.node[11].nic.mac1609_4 NumInternalContention_CCH 0
scalar SlicingScenario.node[11].nic.mac1609_4 RemainingPacketsInEDCA_CCH 0
scalar SlicingScenario.node[11].nic.mac1609_4 totalBusyTime_CCH 0.638541613739
scalar SlicingScenario.node[11].nic.mac1609_4 ReceivedUnicastPackets_SCH 0
scalar SlicingScenario.node[11].nic.mac1609_4 ReceivedBroadcasts_SCH 17740
scalar SlicingScenario.node[11].nic.mac1609_4 SentPackets_SCH 0
scalar SlicingScenario.node[11].nic.mac1609_4 SentAcknowledgements_SCH 0
scalar SlicingScenario.node[11].nic.mac1609_4 SNIRLostPackets_SCH 0
scalar SlicingScenario.node[11].nic.mac1609_4 RXTXLostPackets_SCH 0
scalar SlicingScenario.node[11].nic.mac1609_4 TotalLostPackets_SCH 0
scalar SlicingScenario.node[11].nic.mac1609_4 DroppedPacketsInMac_SCH 0
scalar SlicingScenario.node[11].nic.mac1609_4 TooLittleTime_SCH 0
scalar SlicingScenario.node[11].nic.mac1609_4 TimesIntoBackoff_SCH 0
scalar SlicingScenario.node[11].nic.mac1609_4 SlotsBackoff_SCH 0
scalar SlicingScenario.node[11].nic.mac1609_4 NumInternalContention_SCH 0
scalar SlicingScenario.node[11].nic.mac1609_4 RemainingPacketsInEDCA_SCH 0
scalar SlicingScenario.node[11].nic.mac1609_4 totalBusyTime_SCH 35.190048
scalar SlicingScenario.node[11].veinsmobility startTime 3
scalar SlicingScenario.node[11].veinsmobility totalTime 94
scalar SlicingScenario.node[11].veinsmobility stopTime 98
scalar SlicingScenario.node[11].veinsmobility minSpeed 4.8939898547935
scalar SlicingScenario.node[11].veinsmobility maxSpeed 11.095556657426
scalar SlicingScenario.node[11].veinsmobility totalDistance 984.37223156533
scalar SlicingScenario.node[11].veinsmobility totalCO2Emission 173.87345719294
scalar SlicingScenario.node[13].appl txPackets_CCH_91 0
scalar SlicingScenario.node[13].appl rxPackets_CCH_91 0
scalar SlicingScenario.node[13].appl rxNeighborPackets_CCH_91 0
scalar SlicingScenario.node[13].appl meanDelay_CCH_91 0
scalar SlicingScenario.node[13].appl meanJitter_CCH_91 0
scalar SlicingScenario.node[13].appl meanRxPacketSize_CCH_91 0
scalar SlicingScenario.node[13].appl meanTxPacketSize_CCH_91 0
scalar SlicingScenario.node[13].appl meanRxThroughput_CCH_91 0
scalar SlicingScenario.node[13].appl meanTxThroughput_CCH_91 0
scalar SlicingScenario.node[13].appl rxTimeOfService_CCH_91 0
scalar SlicingScenario.node[13].appl txTimeOfService_CCH_91 0
scalar SlicingScenario.node[13].appl txPackets_SCH_40_91 0
scalar SlicingScenario.node[13].appl rxPackets_SCH_40_91 195
scalar SlicingScenario.node[13].appl rxNeighborPackets_SCH_40_91 2609
scalar SlicingScenario.node[13].appl meanDelay_SCH_40_91 43.841132613682
scalar SlicingScenario.node[13].appl meanJitter_SCH_40_91 0.388427822348
scalar SlicingScenario.node[13].appl meanRxPacketSize_SCH_40_91 1510
scalar SlicingScenario.node[13].appl meanTxPacketSize_SCH_40_91 0
scalar SlicingScenario.node[13].appl meanRxThroughput_SCH_40_91 36560.748578989
scalar SlicingScenario.node[13].appl meanTxThroughput_SCH_40_91 0
scalar SlicingScenario.node[13].appl rxTimeOfService_SCH_40_91 64.429752987983
scalar SlicingScenario.node[13].appl txTimeOfService_SCH_40_91 0
scalar SlicingScenario.node[13].nic.phy80211p busyTime 0.38231489361704
scalar SlicingScenario.node[13].nic.phy80211p ncollisions 0
scalar SlicingScenario.node[13].nic.phy80211p UnderSensitivityPackets 1494
scalar SlicingScenario.node[13].nic.mac1609_4 ReceivedUnicastPackets_CCH 0
scalar SlicingScenario.node[13].nic.mac1609_4 ReceivedBroadcasts_CCH 88
scalar SlicingScenario.node[13].nic.mac1609_4 SentPackets_CCH 0
scalar SlicingScenario.node[13].nic.mac1609_4 SentAcknowledgements_CCH 0
scalar SlicingScenario.node[13].nic.mac1609_4 SNIRLostPackets_CCH 0
scalar SlicingScenario.node[13].nic.mac1609_4 RXTXLostPackets_CCH 0
scalar SlicingScenario.node[13].nic.mac1609_4 TotalLostPackets_CCH 0
scalar SlicingScenario.node[13].nic.mac1609_4 DroppedPacketsInMac_CCH 0
scalar SlicingScenario.node[13].nic.mac1609_4 TooLittleTime_CCH 0
scalar SlicingScenario.node[13].nic.mac1609_4 TimesIntoBackoff_CCH 0
scalar SlicingScenario.node[13].nic.mac1609_4 SlotsBackoff_CCH 0
scalar SlicingScenario.node[13].nic.mac1609_4 NumInternalContention_CCH 0
scalar SlicingScenario.node[13].nic.mac1609_4 RemainingPacketsInEDCA_CCH 0
scalar SlicingScenario.node[13].nic.mac1609_4 totalBusyTime_CCH 0.336594650663
scalar SlicingScenario.node[13].nic.mac1609_4 ReceivedUnicastPackets_SCH 0
scalar SlicingScenario.node[13].nic.mac1609_4 ReceivedBroadcasts_SCH 18036
scalar SlicingScenario.node[13].nic.mac1609_4 SentPackets_SCH 0
scalar SlicingScenario.node[13].nic.mac1609_4 SentAcknowledgements_SCH 0
scalar SlicingScenario.node[13].nic.mac1609_4 SNIRLostPackets_SCH 0
scalar SlicingScenario.node[13].nic.mac1609_4 RXTXLostPackets_SCH 0
scalar SlicingScenario.node[13].nic.mac1609_4 TotalLostPackets_SCH 0
scalar SlicingScenario.node[13].nic.mac1609_4 DroppedPacketsInMac_SCH 0
scalar SlicingScenario.node[13].nic.mac1609_4 TooLittleTime_SCH 0
scalar SlicingScenario.node[13].nic.mac1609_4 TimesIntoBackoff_SCH 0
scalar SlicingScenario.node[13].nic.mac1609_4 SlotsBackoff_SCH 0
scalar SlicingScenario.node[13].nic.mac1609_4 NumInternalContention_SCH 0
scalar SlicingScenario.node[13].nic.mac1609_4 RemainingPacketsInEDCA_SCH 0
scalar SlicingScenario.node[13].nic.mac1609_4 totalBusyTime_SCH 35.768064
scalar SlicingScenario.node[13].veinsmobility startTime 5
scalar SlicingScenario.node[13].veinsmobility totalTime 93
scalar SlicingScenario.node[13].veinsmobility stopTime 99
scalar SlicingScenario.node[13].veinsmobility minSpeed 5.6135603387475
scalar SlicingScenario.node[13].veinsmobility maxSpeed 11.098572360831
scalar SlicingScenario.node[13].veinsmobility totalDistance 978.72507399829
scalar SlicingScenario.node[13].veinsmobility totalCO2Emission 172.08978108267
scalar SlicingScenario.node[12].appl txPackets_CCH_85 0
scalar SlicingScenario.node[12].appl rxPackets_CCH_85 0
scalar SlicingScenario.node[12].appl rxNeighborPackets_CCH_85 0
scalar SlicingScenario.node[12].appl meanDelay_CCH_85 0
scalar SlicingScenario.node[12].appl meanJitter_CCH_85 0
scalar SlicingScenario.node[12].appl meanRxPacketSize_CCH_85 0
scalar SlicingScenario.node[12].appl meanTxPacketSize_CCH_85 0
scalar SlicingScenario.node[12].appl meanRxThroughput_CCH_85 0
scalar SlicingScenario.node[12].appl meanTxThroughput_CCH_85 0
scalar SlicingScenario.node[12].appl rxTimeOfService_CCH_85 0
scalar SlicingScenario.node[12].appl txTimeOfService_CCH_85 0
scalar SlicingScenario.node[12].appl txPackets_SCH_41_85 0
scalar SlicingScenario.node[12].appl rxPackets_SCH_41_85 1286
scalar SlicingScenario.node[12].appl rxNeighborPackets_SCH_41_85 14221
scalar SlicingScenario.node[12].appl meanDelay_SCH_41_85 46.106878022986
scalar SlicingScenario.node[12].appl meanJitter_SCH_41_85 0.059354017175
scalar SlicingScenario.node[12].appl meanRxPacketSize_SCH_41_85 1438
scalar SlicingScenario.node[12].appl meanTxPacketSize_SCH_41_85 0
scalar SlicingScenario.node[12].appl meanRxThroughput_SCH_41_85 238290.50060373
scalar SlicingScenario.node[12].appl meanTxThroughput_SCH_41_85 0
scalar SlicingScenario.node[12].appl rxTimeOfService_SCH_41_85 62.104364053564
scalar SlicingScenario.node[12].appl txTimeOfService_SCH_41_85 0
scalar SlicingScenario.node[12].nic.phy80211p busyTime 0.38270551578949
scalar SlicingScenario.node[12].nic.phy80211p ncollisions 0
scalar SlicingScenario.node[12].nic.phy80211p UnderSensitivityPackets 1494
scalar SlicingScenario.node[12].nic.mac1609_4 ReceivedUnicastPackets_CCH 0
scalar SlicingScenario.node[12].nic.mac1609_4 ReceivedBroadcasts_CCH 34
scalar SlicingScenario.node[12].nic.mac1609_4 SentPackets_CCH 0
scalar SlicingScenario.node[12].nic.mac1609_4 SentAcknowledgements_CCH 0
scalar SlicingScenario.node[12].nic.mac1609_4 SNIRLostPackets_CCH 0
scalar SlicingScenario.node[12].nic.mac1609_4 RXTXLostPackets_CCH 0
scalar SlicingScenario.node[12].nic.mac1609_4 TotalLostPackets_CCH 0
scalar SlicingScenario.node[12].nic.mac1609_4 DroppedPacketsInMac_CCH 0
scalar SlicingScenario.node[12].nic.mac1609_4 TooLittleTime_CCH 0
scalar SlicingScenario.node[12].nic.mac1609_4 TimesIntoBackoff_CCH 0
scalar SlicingScenario.node[12].nic.mac1609_4 SlotsBackoff_CCH 0
scalar SlicingScenario.node[12].nic.mac1609_4 NumInternalContention_CCH 0
scalar SlicingScenario.node[12].nic.mac1609_4 RemainingPacketsInEDCA_CCH 0
scalar SlicingScenario.node[12].nic.mac1609_4 totalBusyTime_CCH 0.122460462311
scalar SlicingScenario.node[12].nic.mac1609_4 ReceivedUnicastPackets_SCH 0
scalar SlicingScenario.node[12].nic.mac1609_4 ReceivedBroadcasts_SCH 18302
scalar SlicingScenario.node[12].nic.mac1609_4 SentPackets_SCH 0
scalar SlicingScenario.node[12].nic.mac1609_4 SentAcknowledgements_SCH 0
scalar SlicingScenario.node[12].nic.mac1609_4 SNIRLostPackets_SCH 0
scalar SlicingScenario.node[12].nic.mac1609_4 RXTXLostPackets_SCH 0
scalar SlicingScenario.node[12].nic.mac1609_4 TotalLostPackets_SCH 0
scalar SlicingScenario.node[12].nic.mac1609_4 DroppedPacketsInMac_SCH 0
scalar SlicingScenario.node[12].nic.mac1609_4 TooLittleTime_SCH 0
scalar SlicingScenario.node[12].nic.mac1609_4 TimesIntoBackoff_SCH 0
scalar SlicingScenario.node[12].nic.mac1609_4 SlotsBackoff_SCH 0
scalar SlicingScenario.node[12].nic.mac1609_4 NumInternalContention_SCH 0
scalar SlicingScenario.node[12].nic.mac1609_4 RemainingPacketsInEDCA_SCH 0
scalar SlicingScenario.node[12].nic.mac1609_4 totalBusyTime_SCH 36.295584
scalar SlicingScenario.node[12].veinsmobility startTime 5
scalar SlicingScenario.node[12].veinsmobility totalTime 94
scalar SlicingScenario.node[12].veinsmobility stopTime 100
scalar SlicingScenario.node[12].veinsmobility minSpeed 4.2504918616232
scalar SlicingScenario.node[12].veinsmobility maxSpeed 11.102755747167
scalar SlicingScenario.node[12].veinsmobility totalDistance 976.63901463279
scalar SlicingScenario.node[12].veinsmobility totalCO2Emission 173.89702688291
scalar SlicingScenario.node[15].appl txPackets_CCH_103 0
scalar SlicingScenario.node[15].appl rxPackets_CCH_103 0
scalar SlicingScenario.node[15].appl rxNeighborPackets_CCH_103 0
scalar SlicingScenario.node[15].appl meanDelay_CCH_103 0
scalar SlicingScenario.node[15].appl meanJitter_CCH_103 0
scalar SlicingScenario.node[15].appl meanRxPacketSize_CCH_103 0
scalar SlicingScenario.node[15].appl meanTxPacketSize_CCH_103 0
scalar SlicingScenario.node[15].appl meanRxThroughput_CCH_103 0
scalar SlicingScenario.node[15].appl meanTxThroughput_CCH_103 0
scalar SlicingScenario.node[15].appl rxTimeOfService_CCH_103 0
scalar SlicingScenario.node[15].appl txTimeOfService_CCH_103 0
scalar SlicingScenario.node[15].appl txPackets_SCH_41_103 0
scalar SlicingScenario.node[15].appl rxPackets_SCH_41_103 1400
scalar SlicingScenario.node[15].appl rxNeighborPackets_SCH_41_103 14291
scalar SlicingScenario.node[15].appl meanDelay_SCH_41_103 44.635092654886
scalar SlicingScenario.node[15].appl meanJitter_SCH_41_103 0.054584031997
scalar SlicingScenario.node[15].appl meanRxPacketSize_SCH_41_103 1438
scalar SlicingScenario.node[15].appl meanTxPacketSize_SCH_41_103 0
scalar SlicingScenario.node[15].appl meanRxThroughput_SCH_41_103 247014.67850195
scalar SlicingScenario.node[15].appl meanTxThroughput_SCH_41_103 0
scalar SlicingScenario.node[15].appl rxTimeOfService_SCH_41_103 65.226892983499
scalar SlicingScenario.node[15].appl txTimeOfService_SCH_41_103 0
scalar SlicingScenario.node[15].nic.phy80211p busyTime 0.38717103157896
scalar SlicingScenario.node[15].nic.phy80211p ncollisions 0
scalar SlicingScenario.node[15].nic.phy80211p UnderSensitivityPackets 1280
scalar SlicingScenario.node[15].nic.mac1609_4 ReceivedUnicastPackets_CCH 0
scalar SlicingScenario.node[15].nic.mac1609_4 ReceivedBroadcasts_CCH 0
scalar SlicingScenario.node[15].nic.mac1609_4 SentPackets_CCH 0
scalar SlicingScenario.node[15].nic.mac1609_4 SentAcknowledgements_CCH 0
scalar SlicingScenario.node[15].nic.mac1609_4 SNIRLostPackets_CCH 0
scalar SlicingScenario.node[15].nic.mac1609_4 RXTXLostPackets_CCH 0
scalar SlicingScenario.node[15].nic.mac1609_4 TotalLostPackets_CCH 0
scalar SlicingScenario.node[15].nic.mac1609_4 DroppedPacketsInMac_CCH 0
scalar SlicingScenario.node[15].nic.mac1609_4 TooLittleTime_CCH 0
scalar SlicingScenario.node[15].nic.mac1609_4 TimesIntoBackoff_CCH 0
scalar SlicingScenario.node[15].nic.mac1609_4 SlotsBackoff_CCH 0
scalar SlicingScenario.node[15].nic.mac1609_4 NumInternalContention_CCH 0
scalar SlicingScenario.node[15].nic.mac1609_4 RemainingPacketsInEDCA_CCH 0
scalar SlicingScenario.node[15].nic.mac1609_4 totalBusyTime_CCH 0
scalar SlicingScenario.node[15].nic.mac1609_4 ReceivedUnicastPackets_SCH 0
scalar SlicingScenario.node[15].nic.mac1609_4 ReceivedBroadcasts_SCH 18550
scalar SlicingScenario.node[15].nic.mac1609_4 SentPackets_SCH 0
scalar SlicingScenario.node[15].nic.mac1609_4 SentAcknowledgements_SCH 0
scalar SlicingScenario.node[15].nic.mac1609_4 SNIRLostPackets_SCH 0
scalar SlicingScenario.node[15].nic.mac1609_4 RXTXLostPackets_SCH 0
scalar SlicingScenario.node[15].nic.mac1609_4 TotalLostPackets_SCH 0
scalar SlicingScenario.node[15].nic.mac1609_4 DroppedPacketsInMac_SCH 0
scalar SlicingScenario.node[15].nic.mac1609_4 TooLittleTime_SCH 0
scalar SlicingScenario.node[15].nic.mac1609_4 TimesIntoBackoff_SCH 0
scalar SlicingScenario.node[15].nic.mac1609_4 SlotsBackoff_SCH 0
scalar SlicingScenario.node[15].nic.mac1609_4 NumInternalContention_SCH 0
scalar SlicingScenario.node[15].nic.mac1609_4 RemainingPacketsInEDCA_SCH 0
scalar SlicingScenario.node[15].nic.mac1609_4 totalBusyTime_SCH 36.781248
scalar SlicingScenario.node[15].veinsmobility startTime 5
scalar SlicingScenario.node[15].veinsmobility totalTime 94
scalar SlicingScenario.node[15].veinsmobility stopTime 100
scalar SlicingScenario.node[15].veinsmobility minSpeed 4.7226220005641
scalar SlicingScenario.node[15].veinsmobility maxSpeed 11.1070534069
scalar SlicingScenario.node[15].veinsmobility totalDistance 983.91203767642
scalar SlicingScenario.node[15].veinsmobility totalCO2Emission 173.77625391786
scalar SlicingScenario.node[16].appl txPackets_CCH_109 0
scalar SlicingScenario.node[16].appl rxPackets_CCH_109 0
scalar SlicingScenario.node[16].appl rxNeighborPackets_CCH_109 0
scalar SlicingScenario.node[16].appl meanDelay_CCH_109 0
scalar SlicingScenario.node[16].appl meanJitter_CCH_109 0
scalar SlicingScenario.node[16].appl meanRxPacketSize_CCH_109 0
scalar SlicingScenario.node[16].appl meanTxPacketSize_CCH_109 0
scalar SlicingScenario.node[16].appl meanRxThroughput_CCH_109 0
scalar SlicingScenario.node[16].appl meanTxThroughput_CCH_109 0
scalar SlicingScenario.node[16].appl rxTimeOfService_CCH_109 0
scalar SlicingScenario.node[16].appl txTimeOfService_CCH_109 0
scalar SlicingScenario.node[16].appl txPackets_SCH_41_109 0
scalar SlicingScenario.node[16].appl rxPackets_SCH_41_109 729
scalar SlicingScenario.node[16].appl rxNeighborPackets_SCH_41_109 15146
scalar SlicingScenario.node[16].appl meanDelay_SCH_41_109 58.662509593681
scalar SlicingScenario.node[16].appl meanJitter_SCH_41_109 0.105976925204
scalar SlicingScenario.node[16].appl meanRxPacketSize_SCH_41_109 1438
scalar SlicingScenario.node[16].appl meanTxPacketSize_SCH_41_109 0
scalar SlicingScenario.node[16].appl meanRxThroughput_SCH_41_109 208777.8275818
scalar SlicingScenario.node[16].appl meanTxThroughput_SCH_41_109 0
scalar SlicingScenario.node[16].appl rxTimeOfService_SCH_41_109 40.187792435539
scalar SlicingScenario.node[16].appl txTimeOfService_SCH_41_109 0
scalar SlicingScenario.node[16].nic.phy80211p busyTime 0.39579574468086
scalar SlicingScenario.node[16].nic.phy80211p ncollisions 0
scalar SlicingScenario.node[16].nic.phy80211p UnderSensitivityPackets 1280
scalar SlicingScenario.node[16].nic.mac1609_4 ReceivedUnicastPackets_CCH 0
scalar SlicingScenario.node[16].nic.mac1609_4 ReceivedBroadcasts_CCH 0
scalar SlicingScenario.node[16].nic.mac1609_4 SentPackets_CCH 0
scalar SlicingScenario.node[16].nic.mac1609_4 SentAcknowledgements_CCH 0
scalar SlicingScenario.node[16].nic.mac1609_4 SNIRLostPackets_CCH 0
scalar SlicingScenario.node[16].nic.mac1609_4 RXTXLostPackets_CCH 0
scalar SlicingScenario.node[16].nic.mac1609_4 TotalLostPackets_CCH 0
scalar SlicingScenario.node[16].nic.mac1609_4 DroppedPacketsInMac_CCH 0
scalar SlicingScenario.node[16].nic.mac1609_4 TooLittleTime_CCH 0
scalar SlicingScenario.node[16].nic.mac1609_4 TimesIntoBackoff_CCH 0
scalar SlicingScenario.node[16].nic.mac1609_4 SlotsBackoff_CCH 0
scalar SlicingScenario.node[16].nic.mac1609_4 NumInternalContention_CCH 0
scalar SlicingScenario.node[16].nic.mac1609_4 RemainingPacketsInEDCA_CCH 0
scalar SlicingScenario.node[16].nic.mac1609_4 totalBusyTime_CCH 0
scalar SlicingScenario.node[16].nic.mac1609_4 ReceivedUnicastPackets_SCH 0
scalar SlicingScenario.node[16].nic.mac1609_4 ReceivedBroadcasts_SCH 18764
scalar SlicingScenario.node[16].nic.mac1609_4 SentPackets_SCH 0
scalar SlicingScenario.node[16].nic.mac1609_4 SentAcknowledgements_SCH 0
scalar SlicingScenario.node[16].nic.mac1609_4 SNIRLostPackets_SCH 0
scalar SlicingScenario.node[16].nic.mac1609_4 RXTXLostPackets_SCH 0
scalar SlicingScenario.node[16].nic.mac1609_4 TotalLostPackets_SCH 0
scalar SlicingScenario.node[16].nic.mac1609_4 DroppedPacketsInMac_SCH 0
scalar SlicingScenario.node[16].nic.mac1609_4 TooLittleTime_SCH 0
scalar SlicingScenario.node[16].nic.mac1609_4 TimesIntoBackoff_SCH 0
scalar SlicingScenario.node[16].nic.mac1609_4 SlotsBackoff_SCH 0
scalar SlicingScenario.node[16].nic.mac1609_4 NumInternalContention_SCH 0
scalar SlicingScenario.node[16].nic.mac1609_4 RemainingPacketsInEDCA_SCH 0
scalar SlicingScenario.node[16].nic.mac1609_4 totalBusyTime_SCH 37.2048
scalar SlicingScenario.node[16].veinsmobility startTime 7
scalar SlicingScenario.node[16].veinsmobility totalTime 93
scalar SlicingScenario.node[16].veinsmobility stopTime 101
scalar SlicingScenario.node[16].veinsmobility minSpeed 6.0639881347112
scalar SlicingScenario.node[16].veinsmobility maxSpeed 11.097842314178
scalar SlicingScenario.node[16].veinsmobility totalDistance 981.91569803325
scalar SlicingScenario.node[16].veinsmobility totalCO2Emission 171.90161809739
scalar SlicingScenario.node[14].appl txPackets_CCH_97 0
scalar SlicingScenario.node[14].appl rxPackets_CCH_97 0
scalar SlicingScenario.node[14].appl rxNeighborPackets_CCH_97 0
scalar SlicingScenario.node[14].appl meanDelay_CCH_97 0
scalar SlicingScenario.node[14].appl meanJitter_CCH_97 0
scalar SlicingScenario.node[14].appl meanRxPacketSize_CCH_97 0
scalar SlicingScenario.node[14].appl meanTxPacketSize_CCH_97 0
scalar SlicingScenario.node[14].appl meanRxThroughput_CCH_97 0
scalar SlicingScenario.node[14].appl meanTxThroughput_CCH_97 0
scalar SlicingScenario.node[14].appl rxTimeOfService_CCH_97 0
scalar SlicingScenario.node[14].appl txTimeOfService_CCH_97 0
scalar SlicingScenario.node[14].appl txPackets_SCH_40_97 0
scalar SlicingScenario.node[14].appl rxPackets_SCH_40_97 187
scalar SlicingScenario.node[14].appl rxNeighborPackets_SCH_40_97 2663
scalar SlicingScenario.node[14].appl meanDelay_SCH_40_97 46.740517059761
scalar SlicingScenario.node[14].appl meanJitter_SCH_40_97 0.41910136216
scalar SlicingScenario.node[14].appl meanRxPacketSize_SCH_40_97 1510
scalar SlicingScenario.node[14].appl meanTxPacketSize_SCH_40_97 0
scalar SlicingScenario.node[14].appl meanRxThroughput_SCH_40_97 35370.1487577
scalar SlicingScenario.node[14].appl meanTxThroughput_SCH_40_97 0
scalar SlicingScenario.node[14].appl rxTimeOfService_SCH_40_97 63.866284970266
scalar SlicingScenario.node[14].appl txTimeOfService_SCH_40_97 0
scalar SlicingScenario.node[14].nic.phy80211p busyTime 0.37919554639176
scalar SlicingScenario.node[14].nic.phy80211p ncollisions 0
scalar SlicingScenario.node[14].nic.phy80211p UnderSensitivityPackets 1708
scalar SlicingScenario.node[14].nic.mac1609_4 ReceivedUnicastPackets_CCH 0
scalar SlicingScenario.node[14].nic.mac1609_4 ReceivedBroadcasts_CCH 100
scalar SlicingScenario.node[14].nic.mac1609_4 SentPackets_CCH 0
scalar SlicingScenario.node[14].nic.mac1609_4 SentAcknowledgements_CCH 0
scalar SlicingScenario.node[14].nic.mac1609_4 SNIRLostPackets_CCH 0
scalar SlicingScenario.node[14].nic.mac1609_4 RXTXLostPackets_CCH 0
scalar SlicingScenario.node[14].nic.mac1609_4 TotalLostPackets_CCH 0
scalar SlicingScenario.node[14].nic.mac1609_4 DroppedPacketsInMac_CCH 0
scalar SlicingScenario.node[14].nic.mac1609_4 TooLittleTime_CCH 0
scalar SlicingScenario.node[14].nic.mac1609_4 TimesIntoBackoff_CCH 0
scalar SlicingScenario.node[14].nic.mac1609_4 SlotsBackoff_CCH 0
scalar SlicingScenario.node[14].nic.mac1609_4 NumInternalContention_CCH 0
scalar SlicingScenario.node[14].nic.mac1609_4 RemainingPacketsInEDCA_CCH 0
scalar SlicingScenario.node[14].nic.mac1609_4 totalBusyTime_CCH 0.378296488719
scalar SlicingScenario.node[14].nic.mac1609_4 ReceivedUnicastPackets_SCH 0
scalar SlicingScenario.node[14].nic.mac1609_4 ReceivedBroadcasts_SCH 18451
scalar SlicingScenario.node[14].nic.mac1609_4 SentPackets_SCH 0
scalar SlicingScenario.node[14].nic.mac1609_4 SentAcknowledgements_SCH 0
scalar SlicingScenario.node[14].nic.mac1609_4 SNIRLostPackets_SCH 0
scalar SlicingScenario.node[14].nic.mac1609_4 RXTXLostPackets_SCH 0
scalar SlicingScenario.node[14].nic.mac1609_4 TotalLostPackets_SCH 0
scalar SlicingScenario.node[14].nic.mac1609_4 DroppedPacketsInMac_SCH 0
scalar SlicingScenario.node[14].nic.mac1609_4 TooLittleTime_SCH 0
scalar SlicingScenario.node[14].nic.mac1609_4 TimesIntoBackoff_SCH 0
scalar SlicingScenario.node[14].nic.mac1609_4 SlotsBackoff_SCH 0
scalar SlicingScenario.node[14].nic.mac1609_4 NumInternalContention_SCH 0
scalar SlicingScenario.node[14].nic.mac1609_4 RemainingPacketsInEDCA_SCH 0
scalar SlicingScenario.node[14].nic.mac1609_4 totalBusyTime_SCH 36.591024
scalar SlicingScenario.node[14].veinsmobility startTime 5
scalar SlicingScenario.node[14].veinsmobility totalTime 96
scalar SlicingScenario.node[14].veinsmobility stopTime 102
scalar SlicingScenario.node[14].veinsmobility minSpeed 2.2277832608391
scalar SlicingScenario.node[14].veinsmobility maxSpeed 11.097648256589
scalar SlicingScenario.node[14].veinsmobility totalDistance 976.17829367872
scalar SlicingScenario.node[14].veinsmobility totalCO2Emission 178.06361828358
scalar SlicingScenario.node[18].appl txPackets_CCH_121 0
scalar SlicingScenario.node[18].appl rxPackets_CCH_121 0
scalar SlicingScenario.node[18].appl rxNeighborPackets_CCH_121 0
scalar SlicingScenario.node[18].appl meanDelay_CCH_121 0
scalar SlicingScenario.node[18].appl meanJitter_CCH_121 0
scalar SlicingScenario.node[18].appl meanRxPacketSize_CCH_121 0
scalar SlicingScenario.node[18].appl meanTxPacketSize_CCH_121 0
scalar SlicingScenario.node[18].appl meanRxThroughput_CCH_121 0
scalar SlicingScenario.node[18].appl meanTxThroughput_CCH_121 0
scalar SlicingScenario.node[18].appl rxTimeOfService_CCH_121 0
scalar SlicingScenario.node[18].appl txTimeOfService_CCH_121 0
scalar SlicingScenario.node[18].appl txPackets_SCH_40_121 0
scalar SlicingScenario.node[18].appl rxPackets_SCH_40_121 85
scalar SlicingScenario.node[18].appl rxNeighborPackets_SCH_40_121 2831
scalar SlicingScenario.node[18].appl meanDelay_SCH_40_121 63.193404950034
scalar SlicingScenario.node[18].appl meanJitter_SCH_40_121 0.939976538073
scalar SlicingScenario.node[18].appl meanRxPacketSize_SCH_40_121 1510
scalar SlicingScenario.node[18].appl meanTxPacketSize_SCH_40_121 0
scalar SlicingScenario.node[18].appl meanRxThroughput_SCH_40_121 28834.36847291
scalar SlicingScenario.node[18].appl meanTxThroughput_SCH_40_121 0
scalar SlicingScenario.node[18].appl rxTimeOfService_SCH_40_121 35.610282256214
scalar SlicingScenario.node[18].appl txTimeOfService_SCH_40_121 0
scalar SlicingScenario.node[18].nic.phy80211p busyTime 0.3919835
scalar SlicingScenario.node[18].nic.phy80211p ncollisions 0
scalar SlicingScenario.node[18].nic.phy80211p UnderSensitivityPackets 1493
scalar SlicingScenario.node[18].nic.mac1609_4 ReceivedUnicastPackets_CCH 0
scalar SlicingScenario.node[18].nic.mac1609_4 ReceivedBroadcasts_CCH 90
scalar SlicingScenario.node[18].nic.mac1609_4 SentPackets_CCH 0
scalar SlicingScenario.node[18].nic.mac1609_4 SentAcknowledgements_CCH 0
scalar SlicingScenario.node[18].nic.mac1609_4 SNIRLostPackets_CCH 0
scalar SlicingScenario.node[18].nic.mac1609_4 RXTXLostPackets_CCH 0
scalar SlicingScenario.node[18].nic.mac1609_4 TotalLostPackets_CCH 0
scalar SlicingScenario.node[18].nic.mac1609_4 DroppedPacketsInMac_CCH 0
scalar SlicingScenario.node[18].nic.mac1609_4 TooLittleTime_CCH 0
scalar SlicingScenario.node[18].nic.mac1609_4 TimesIntoBackoff_CCH 0
scalar SlicingScenario.node[18].nic.mac1609_4 SlotsBackoff_CCH 0
scalar SlicingScenario.node[18].nic.mac1609_4 NumInternalContention_CCH 0
scalar SlicingScenario.node[18].nic.mac1609_4 RemainingPacketsInEDCA_CCH 0
scalar SlicingScenario.node[18].nic.mac1609_4 totalBusyTime_CCH 0.340395569516
scalar SlicingScenario.node[18].nic.mac1609_4 ReceivedUnicastPackets_SCH 0
scalar SlicingScenario.node[18].nic.mac1609_4 ReceivedBroadcasts_SCH 18889
scalar SlicingScenario.node[18].nic.mac1609_4 SentPackets_SCH 0
scalar SlicingScenario.node[18].nic.mac1609_4 SentAcknowledgements_SCH 0
scalar SlicingScenario.node[18].nic.mac1609_4 SNIRLostPackets_SCH 0
scalar SlicingScenario.node[18].nic.mac1609_4 RXTXLostPackets_SCH 0
scalar SlicingScenario.node[18].nic.mac1609_4 TotalLostPackets_SCH 0
scalar SlicingScenario.node[18].nic.mac1609_4 DroppedPacketsInMac_SCH 0
scalar SlicingScenario.node[18].nic.mac1609_4 TooLittleTime_SCH 0
scalar SlicingScenario.node[18].nic.mac1609_4 TimesIntoBackoff_SCH 0
scalar SlicingScenario.node[18].nic.mac1609_4 SlotsBackoff_SCH 0
scalar SlicingScenario.node[18].nic.mac1609_4 NumInternalContention_SCH 0
scalar SlicingScenario.node[18].nic.mac1609_4 RemainingPacketsInEDCA_SCH 0
scalar SlicingScenario.node[18].nic.mac1609_4 totalBusyTime_SCH 37.458768
scalar SlicingScenario.node[18].veinsmobility startTime 7
scalar SlicingScenario.node[18].veinsmobility totalTime 95
scalar SlicingScenario.node[18].veinsmobility stopTime 103
scalar SlicingScenario.node[18].veinsmobility minSpeed 3.1045870118453
scalar SlicingScenario.node[18].veinsmobility maxSpeed 11.108104501283
scalar SlicingScenario.node[18].veinsmobility totalDistance 979.54688804354
scalar SlicingScenario.node[18].veinsmobility totalCO2Emission 177.3461076567
scalar SlicingScenario.node[17].appl txPackets_CCH_115 0
scalar SlicingScenario.node[17].appl rxPackets_CCH_115 0
scalar SlicingScenario.node[17].appl rxNeighborPackets_CCH_115 0
scalar SlicingScenario.node[17].appl meanDelay_CCH_115 0
scalar SlicingScenario.node[17].appl meanJitter_CCH_115 0
scalar SlicingScenario.node[17].appl meanRxPacketSize_CCH_115 0
scalar SlicingScenario.node[17].appl meanTxPacketSize_CCH_115 0
scalar SlicingScenario.node[17].appl meanRxThroughput_CCH_115 0
scalar SlicingScenario.node[17].appl meanTxThroughput_CCH_115 0
scalar SlicingScenario.node[17].appl rxTimeOfService_CCH_115 0
scalar SlicingScenario.node[17].appl txTimeOfService_CCH_115 0
scalar SlicingScenario.node[17].appl txPackets_SCH_41_115 0
scalar SlicingScenario.node[17].appl rxPackets_SCH_41_115 655
scalar SlicingScenario.node[17].appl rxNeighborPackets_SCH_41_115 15415
scalar SlicingScenario.node[17].appl meanDelay_SCH_41_115 62.02733481958
scalar SlicingScenario.node[17].appl meanJitter_SCH_41_115 0.121029196166
scalar SlicingScenario.node[17].appl meanRxPacketSize_SCH_41_115 1438
scalar SlicingScenario.node[17].appl meanTxPacketSize_SCH_41_115 0
scalar SlicingScenario.node[17].appl meanRxThroughput_SCH_41_115 200287.60408381
scalar SlicingScenario.node[17].appl meanTxThroughput_SCH_41_115 0
scalar SlicingScenario.node[17].appl rxTimeOfService_SCH_41_115 37.627890325387
scalar SlicingScenario.node[17].appl txTimeOfService_SCH_41_115 0
scalar SlicingScenario.node[17].nic.phy80211p busyTime 0.3919765
scalar SlicingScenario.node[17].nic.phy80211p ncollisions 0
scalar SlicingScenario.node[17].nic.phy80211p UnderSensitivityPackets 1493
scalar SlicingScenario.node[17].nic.mac1609_4 ReceivedUnicastPackets_CCH 0
scalar SlicingScenario.node[17].nic.mac1609_4 ReceivedBroadcasts_CCH 164
scalar SlicingScenario.node[17].nic.mac1609_4 SentPackets_CCH 0
scalar SlicingScenario.node[17].nic.mac1609_4 SentAcknowledgements_CCH 0
scalar SlicingScenario.node[17].nic.mac1609_4 SNIRLostPackets_CCH 0
scalar SlicingScenario.node[17].nic.mac1609_4 RXTXLostPackets_CCH 0
scalar SlicingScenario.node[17].nic.mac1609_4 TotalLostPackets_CCH 0
scalar SlicingScenario.node[17].nic.mac1609_4 DroppedPacketsInMac_CCH 0
scalar SlicingScenario.node[17].nic.mac1609_4 TooLittleTime_CCH 0
scalar SlicingScenario.node[17].nic.mac1609_4 TimesIntoBackoff_CCH 0
scalar SlicingScenario.node[17].nic.mac1609_4 SlotsBackoff_CCH 0
scalar SlicingScenario.node[17].nic.mac1609_4 NumInternalContention_CCH 0
scalar SlicingScenario.node[17].nic.mac1609_4 RemainingPacketsInEDCA_CCH 0
scalar SlicingScenario.node[17].nic.mac1609_4 totalBusyTime_CCH 0.61413984162
scalar SlicingScenario.node[17].nic.mac1609_4 ReceivedUnicastPackets_SCH 0
scalar SlicingScenario.node[17].nic.mac1609_4 ReceivedBroadcasts_SCH 18815
scalar SlicingScenario.node[17].nic.mac1609_4 SentPackets_SCH 0
scalar SlicingScenario.node[17].nic.mac1609_4 SentAcknowledgements_SCH 0
scalar SlicingScenario.node[17].nic.mac1609_4 SNIRLostPackets_SCH 0
scalar SlicingScenario.node[17].nic.mac1609_4 RXTXLostPackets_SCH 0
scalar SlicingScenario.node[17].nic.mac1609_4 TotalLostPackets_SCH 0
scalar SlicingScenario.node[17].nic.mac1609_4 DroppedPacketsInMac_SCH 0
scalar SlicingScenario.node[17].nic.mac1609_4 TooLittleTime_SCH 0
scalar SlicingScenario.node[17].nic.mac1609_4 TimesIntoBackoff_SCH 0
scalar SlicingScenario.node[17].nic.mac1609_4 SlotsBackoff_SCH 0
scalar SlicingScenario.node[17].nic.mac1609_4 NumInternalContention_SCH 0
scalar SlicingScenario.node[17].nic.mac1609_4 RemainingPacketsInEDCA_SCH 0
scalar SlicingScenario.node[17].nic.mac1609_4 totalBusyTime_SCH 37.317456
scalar SlicingScenario.node[17].veinsmobility startTime 7
scalar SlicingScenario.node[17].veinsmobility totalTime 95
scalar SlicingScenario.node[17].veinsmobility stopTime 103
[...]
scalar SlicingScenario.rsu[0].appl meanRxPacketSize_SCH_41_1891 0
scalar SlicingScenario.rsu[0].appl meanTxPacketSize_SCH_41_1891 0
scalar SlicingScenario.rsu[0].appl meanRxThroughput_SCH_41_1891 0
scalar SlicingScenario.rsu[0].appl meanTxThroughput_SCH_41_1891 0
scalar SlicingScenario.rsu[0].appl rxTimeOfService_SCH_41_1891 0
scalar SlicingScenario.rsu[0].appl txTimeOfService_SCH_41_1891 0
scalar SlicingScenario.rsu[0].appl txPackets_SCH_41_1897 0
scalar SlicingScenario.rsu[0].appl rxPackets_SCH_41_1897 0
scalar SlicingScenario.rsu[0].appl rxNeighborPackets_SCH_41_1897 0
scalar SlicingScenario.rsu[0].appl meanDelay_SCH_41_1897 0
scalar SlicingScenario.rsu[0].appl meanJitter_SCH_41_1897 0
scalar SlicingScenario.rsu[0].appl meanRxPacketSize_SCH_41_1897 0
scalar SlicingScenario.rsu[0].appl meanTxPacketSize_SCH_41_1897 0
scalar SlicingScenario.rsu[0].appl meanRxThroughput_SCH_41_1897 0
scalar SlicingScenario.rsu[0].appl meanTxThroughput_SCH_41_1897 0
scalar SlicingScenario.rsu[0].appl rxTimeOfService_SCH_41_1897 0
scalar SlicingScenario.rsu[0].appl txTimeOfService_SCH_41_1897 0
scalar SlicingScenario.rsu[0].appl txPackets_SCH_41_1903 0
scalar SlicingScenario.rsu[0].appl rxPackets_SCH_41_1903 0
scalar SlicingScenario.rsu[0].appl rxNeighborPackets_SCH_41_1903 0
scalar SlicingScenario.rsu[0].appl meanDelay_SCH_41_1903 0
scalar SlicingScenario.rsu[0].appl meanJitter_SCH_41_1903 0
scalar SlicingScenario.rsu[0].appl meanRxPacketSize_SCH_41_1903 0
scalar SlicingScenario.rsu[0].appl meanTxPacketSize_SCH_41_1903 0
scalar SlicingScenario.rsu[0].appl meanRxThroughput_SCH_41_1903 0
scalar SlicingScenario.rsu[0].appl meanTxThroughput_SCH_41_1903 0
scalar SlicingScenario.rsu[0].appl rxTimeOfService_SCH_41_1903 0
scalar SlicingScenario.rsu[0].appl txTimeOfService_SCH_41_1903 0
scalar SlicingScenario.rsu[0].appl txPackets_SCH_41_1921 0
scalar SlicingScenario.rsu[0].appl rxPackets_SCH_41_1921 0
scalar SlicingScenario.rsu[0].appl rxNeighborPackets_SCH_41_1921 0
scalar SlicingScenario.rsu[0].appl meanDelay_SCH_41_1921 0
scalar SlicingScenario.rsu[0].appl meanJitter_SCH_41_1921 0
scalar SlicingScenario.rsu[0].appl meanRxPacketSize_SCH_41_1921 0
scalar SlicingScenario.rsu[0].appl meanTxPacketSize_SCH_41_1921 0
scalar SlicingScenario.rsu[0].appl meanRxThroughput_SCH_41_1921 0
scalar SlicingScenario.rsu[0].appl meanTxThroughput_SCH_41_1921 0
scalar SlicingScenario.rsu[0].appl rxTimeOfService_SCH_41_1921 0
scalar SlicingScenario.rsu[0].appl txTimeOfService_SCH_41_1921 0
scalar SlicingScenario.rsu[0].appl txPackets_SCH_41_1945 0
scalar SlicingScenario.rsu[0].appl rxPackets_SCH_41_1945 0
scalar SlicingScenario.rsu[0].appl rxNeighborPackets_SCH_41_1945 0
scalar SlicingScenario.rsu[0].appl meanDelay_SCH_41_1945 0
scalar SlicingScenario.rsu[0].appl meanJitter_SCH_41_1945 0
scalar SlicingScenario.rsu[0].appl meanRxPacketSize_SCH_41_1945 0
scalar SlicingScenario.rsu[0].appl meanTxPacketSize_SCH_41_1945 0
scalar SlicingScenario.rsu[0].appl meanRxThroughput_SCH_41_1945 0
scalar SlicingScenario.rsu[0].appl meanTxThroughput_SCH_41_1945 0
scalar SlicingScenario.rsu[0].appl rxTimeOfService_SCH_41_1945 0
scalar SlicingScenario.rsu[0].appl txTimeOfService_SCH_41_1945 0
scalar SlicingScenario.rsu[0].appl txPackets_SCH_41_1951 0
scalar SlicingScenario.rsu[0].appl rxPackets_SCH_41_1951 0
scalar SlicingScenario.rsu[0].appl rxNeighborPackets_SCH_41_1951 0
scalar SlicingScenario.rsu[0].appl meanDelay_SCH_41_1951 0
scalar SlicingScenario.rsu[0].appl meanJitter_SCH_41_1951 0
scalar SlicingScenario.rsu[0].appl meanRxPacketSize_SCH_41_1951 0
scalar SlicingScenario.rsu[0].appl meanTxPacketSize_SCH_41_1951 0
scalar SlicingScenario.rsu[0].appl meanRxThroughput_SCH_41_1951 0
scalar SlicingScenario.rsu[0].appl meanTxThroughput_SCH_41_1951 0
scalar SlicingScenario.rsu[0].appl rxTimeOfService_SCH_41_1951 0
scalar SlicingScenario.rsu[0].appl txTimeOfService_SCH_41_1951 0
scalar SlicingScenario.rsu[0].appl txPackets_SCH_41_1957 0
scalar SlicingScenario.rsu[0].appl rxPackets_SCH_41_1957 0
scalar SlicingScenario.rsu[0].appl rxNeighborPackets_SCH_41_1957 0
scalar SlicingScenario.rsu[0].appl meanDelay_SCH_41_1957 0
scalar SlicingScenario.rsu[0].appl meanJitter_SCH_41_1957 0
scalar SlicingScenario.rsu[0].appl meanRxPacketSize_SCH_41_1957 0
scalar SlicingScenario.rsu[0].appl meanTxPacketSize_SCH_41_1957 0
scalar SlicingScenario.rsu[0].appl meanRxThroughput_SCH_41_1957 0
scalar SlicingScenario.rsu[0].appl meanTxThroughput_SCH_41_1957 0
scalar SlicingScenario.rsu[0].appl rxTimeOfService_SCH_41_1957 0
scalar SlicingScenario.rsu[0].appl txTimeOfService_SCH_41_1957 0
scalar SlicingScenario.rsu[0].appl txPackets_SCH_41_1963 0
scalar SlicingScenario.rsu[0].appl rxPackets_SCH_41_1963 0
scalar SlicingScenario.rsu[0].appl rxNeighborPackets_SCH_41_1963 0
scalar SlicingScenario.rsu[0].appl meanDelay_SCH_41_1963 0
scalar SlicingScenario.rsu[0].appl meanJitter_SCH_41_1963 0
scalar SlicingScenario.rsu[0].appl meanRxPacketSize_SCH_41_1963 0
scalar SlicingScenario.rsu[0].appl meanTxPacketSize_SCH_41_1963 0
scalar SlicingScenario.rsu[0].appl meanRxThroughput_SCH_41_1963 0
scalar SlicingScenario.rsu[0].appl meanTxThroughput_SCH_41_1963 0
scalar SlicingScenario.rsu[0].appl rxTimeOfService_SCH_41_1963 0
scalar SlicingScenario.rsu[0].appl txTimeOfService_SCH_41_1963 0
scalar SlicingScenario.rsu[0].appl txPackets_SCH_41_1975 0
scalar SlicingScenario.rsu[0].appl rxPackets_SCH_41_1975 0
scalar SlicingScenario.rsu[0].appl rxNeighborPackets_SCH_41_1975 0
scalar SlicingScenario.rsu[0].appl meanDelay_SCH_41_1975 0
scalar SlicingScenario.rsu[0].appl meanJitter_SCH_41_1975 0
scalar SlicingScenario.rsu[0].appl meanRxPacketSize_SCH_41_1975 0
scalar SlicingScenario.rsu[0].appl meanTxPacketSize_SCH_41_1975 0
scalar SlicingScenario.rsu[0].appl meanRxThroughput_SCH_41_1975 0
scalar SlicingScenario.rsu[0].appl meanTxThroughput_SCH_41_1975 0
scalar SlicingScenario.rsu[0].appl rxTimeOfService_SCH_41_1975 0
scalar SlicingScenario.rsu[0].appl txTimeOfService_SCH_41_1975 0
scalar SlicingScenario.rsu[0].appl txPackets_SCH_41_1981 0
scalar SlicingScenario.rsu[0].appl rxPackets_SCH_41_1981 0
scalar SlicingScenario.rsu[0].appl rxNeighborPackets_SCH_41_1981 0
scalar SlicingScenario.rsu[0].appl meanDelay_SCH_41_1981 0
scalar SlicingScenario.rsu[0].appl meanJitter_SCH_41_1981 0
scalar SlicingScenario.rsu[0].appl meanRxPacketSize_SCH_41_1981 0
scalar SlicingScenario.rsu[0].appl meanTxPacketSize_SCH_41_1981 0
scalar SlicingScenario.rsu[0].appl meanRxThroughput_SCH_41_1981 0
scalar SlicingScenario.rsu[0].appl meanTxThroughput_SCH_41_1981 0
scalar SlicingScenario.rsu[0].appl rxTimeOfService_SCH_41_1981 0
scalar SlicingScenario.rsu[0].appl txTimeOfService_SCH_41_1981 0
scalar SlicingScenario.rsu[0].appl txPackets_SCH_41_2005 0
scalar SlicingScenario.rsu[0].appl rxPackets_SCH_41_2005 0
scalar SlicingScenario.rsu[0].appl rxNeighborPackets_SCH_41_2005 0
scalar SlicingScenario.rsu[0].appl meanDelay_SCH_41_2005 0
scalar SlicingScenario.rsu[0].appl meanJitter_SCH_41_2005 0
scalar SlicingScenario.rsu[0].appl meanRxPacketSize_SCH_41_2005 0
scalar SlicingScenario.rsu[0].appl meanTxPacketSize_SCH_41_2005 0
scalar SlicingScenario.rsu[0].appl meanRxThroughput_SCH_41_2005 0
scalar SlicingScenario.rsu[0].appl meanTxThroughput_SCH_41_2005 0
scalar SlicingScenario.rsu[0].appl rxTimeOfService_SCH_41_2005 0
scalar SlicingScenario.rsu[0].appl txTimeOfService_SCH_41_2005 0
scalar SlicingScenario.rsu[0].appl txPackets_SCH_41_2023 0
scalar SlicingScenario.rsu[0].appl rxPackets_SCH_41_2023 0
scalar SlicingScenario.rsu[0].appl rxNeighborPackets_SCH_41_2023 0
scalar SlicingScenario.rsu[0].appl meanDelay_SCH_41_2023 0
scalar SlicingScenario.rsu[0].appl meanJitter_SCH_41_2023 0
scalar SlicingScenario.rsu[0].appl meanRxPacketSize_SCH_41_2023 0
scalar SlicingScenario.rsu[0].appl meanTxPacketSize_SCH_41_2023 0
scalar SlicingScenario.rsu[0].appl meanRxThroughput_SCH_41_2023 0
scalar SlicingScenario.rsu[0].appl meanTxThroughput_SCH_41_2023 0
scalar SlicingScenario.rsu[0].appl rxTimeOfService_SCH_41_2023 0
scalar SlicingScenario.rsu[0].appl txTimeOfService_SCH_41_2023 0
scalar SlicingScenario.rsu[0].appl txPackets_SCH_41_2035 0
scalar SlicingScenario.rsu[0].appl rxPackets_SCH_41_2035 0
scalar SlicingScenario.rsu[0].appl rxNeighborPackets_SCH_41_2035 0
scalar SlicingScenario.rsu[0].appl meanDelay_SCH_41_2035 0
scalar SlicingScenario.rsu[0].appl meanJitter_SCH_41_2035 0
scalar SlicingScenario.rsu[0].appl meanRxPacketSize_SCH_41_2035 0
scalar SlicingScenario.rsu[0].appl meanTxPacketSize_SCH_41_2035 0
scalar SlicingScenario.rsu[0].appl meanRxThroughput_SCH_41_2035 0
scalar SlicingScenario.rsu[0].appl meanTxThroughput_SCH_41_2035 0
scalar SlicingScenario.rsu[0].appl rxTimeOfService_SCH_41_2035 0
scalar SlicingScenario.rsu[0].appl txTimeOfService_SCH_41_2035 0
scalar SlicingScenario.rsu[0].appl txPackets_SCH_41_2041 0
scalar SlicingScenario.rsu[0].appl rxPackets_SCH_41_2041 0
scalar SlicingScenario.rsu[0].appl rxNeighborPackets_SCH_41_2041 0
scalar SlicingScenario.rsu[0].appl meanDelay_SCH_41_2041 0
scalar SlicingScenario.rsu[0].appl meanJitter_SCH_41_2041 0
scalar SlicingScenario.rsu[0].appl meanRxPacketSize_SCH_41_2041 0
scalar SlicingScenario.rsu[0].appl meanTxPacketSize_SCH_41_2041 0
scalar SlicingScenario.rsu[0].appl meanRxThroughput_SCH_41_2041 0
scalar SlicingScenario.rsu[0].appl meanTxThroughput_SCH_41_2041 0
scalar SlicingScenario.rsu[0].appl rxTimeOfService_SCH_41_2041 0
scalar SlicingScenario.rsu[0].appl txTimeOfService_SCH_41_2041 0
scalar SlicingScenario.rsu[0].appl txPackets_SCH_41_2047 0
scalar SlicingScenario.rsu[0].appl rxPackets_SCH_41_2047 0
scalar SlicingScenario.rsu[0].appl rxNeighborPackets_SCH_41_2047 0
scalar SlicingScenario.rsu[0].appl meanDelay_SCH_41_2047 0
scalar SlicingScenario.rsu[0].appl meanJitter_SCH_41_2047 0
scalar SlicingScenario.rsu[0].appl meanRxPacketSize_SCH_41_2047 0
scalar SlicingScenario.rsu[0].appl meanTxPacketSize_SCH_41_2047 0
scalar SlicingScenario.rsu[0].appl meanRxThroughput_SCH_41_2047 0
scalar SlicingScenario.rsu[0].appl meanTxThroughput_SCH_41_2047 0
scalar SlicingScenario.rsu[0].appl rxTimeOfService_SCH_41_2047 0
scalar SlicingScenario.rsu[0].appl txTimeOfService_SCH_41_2047 0
scalar SlicingScenario.rsu[0].appl txPackets_SCH_41_2083 0
scalar SlicingScenario.rsu[0].appl rxPackets_SCH_41_2083 0
scalar SlicingScenario.rsu[0].appl rxNeighborPackets_SCH_41_2083 0
scalar SlicingScenario.rsu[0].appl meanDelay_SCH_41_2083 0
scalar SlicingScenario.rsu[0].appl meanJitter_SCH_41_2083 0
scalar SlicingScenario.rsu[0].appl meanRxPacketSize_SCH_41_2083 0
scalar SlicingScenario.rsu[0].appl meanTxPacketSize_SCH_41_2083 0
scalar SlicingScenario.rsu[0].appl meanRxThroughput_SCH_41_2083 0
scalar SlicingScenario.rsu[0].appl meanTxThroughput_SCH_41_2083 0
scalar SlicingScenario.rsu[0].appl rxTimeOfService_SCH_41_2083 0
scalar SlicingScenario.rsu[0].appl txTimeOfService_SCH_41_2083 0
scalar SlicingScenario.rsu[0].appl txPackets_SCH_41_2089 0
scalar SlicingScenario.rsu[0].appl rxPackets_SCH_41_2089 0
scalar SlicingScenario.rsu[0].appl rxNeighborPackets_SCH_41_2089 0
scalar SlicingScenario.rsu[0].appl meanDelay_SCH_41_2089 0
scalar SlicingScenario.rsu[0].appl meanJitter_SCH_41_2089 0
scalar SlicingScenario.rsu[0].appl meanRxPacketSize_SCH_41_2089 0
scalar SlicingScenario.rsu[0].appl meanTxPacketSize_SCH_41_2089 0
scalar SlicingScenario.rsu[0].appl meanRxThroughput_SCH_41_2089 0
scalar SlicingScenario.rsu[0].appl meanTxThroughput_SCH_41_2089 0
scalar SlicingScenario.rsu[0].appl rxTimeOfService_SCH_41_2089 0
scalar SlicingScenario.rsu[0].appl txTimeOfService_SCH_41_2089 0
scalar SlicingScenario.rsu[0].appl txPackets_SCH_41_2101 0
scalar SlicingScenario.rsu[0].appl rxPackets_SCH_41_2101 0
scalar SlicingScenario.rsu[0].appl rxNeighborPackets_SCH_41_2101 0
scalar SlicingScenario.rsu[0].appl meanDelay_SCH_41_2101 0
scalar SlicingScenario.rsu[0].appl meanJitter_SCH_41_2101 0
scalar SlicingScenario.rsu[0].appl meanRxPacketSize_SCH_41_2101 0
scalar SlicingScenario.rsu[0].appl meanTxPacketSize_SCH_41_2101 0
scalar SlicingScenario.rsu[0].appl meanRxThroughput_SCH_41_2101 0
scalar SlicingScenario.rsu[0].appl meanTxThroughput_SCH_41_2101 0
scalar SlicingScenario.rsu[0].appl rxTimeOfService_SCH_41_2101 0
scalar SlicingScenario.rsu[0].appl txTimeOfService_SCH_41_2101 0
scalar SlicingScenario.rsu[0].appl txPackets_SCH_41_2107 0
scalar SlicingScenario.rsu[0].appl rxPackets_SCH_41_2107 0
scalar SlicingScenario.rsu[0].appl rxNeighborPackets_SCH_41_2107 0
scalar SlicingScenario.rsu[0].appl meanDelay_SCH_41_2107 0
scalar SlicingScenario.rsu[0].appl meanJitter_SCH_41_2107 0
scalar SlicingScenario.rsu[0].appl meanRxPacketSize_SCH_41_2107 0
scalar SlicingScenario.rsu[0].appl meanTxPacketSize_SCH_41_2107 0
scalar SlicingScenario.rsu[0].appl meanRxThroughput_SCH_41_2107 0
scalar SlicingScenario.rsu[0].appl meanTxThroughput_SCH_41_2107 0
scalar SlicingScenario.rsu[0].appl rxTimeOfService_SCH_41_2107 0
scalar SlicingScenario.rsu[0].appl txTimeOfService_SCH_41_2107 0
scalar SlicingScenario.rsu[0].appl txPackets_SCH_41_2113 0
scalar SlicingScenario.rsu[0].appl rxPackets_SCH_41_2113 0
scalar SlicingScenario.rsu[0].appl rxNeighborPackets_SCH_41_2113 0
scalar SlicingScenario.rsu[0].appl meanDelay_SCH_41_2113 0
scalar SlicingScenario.rsu[0].appl meanJitter_SCH_41_2113 0
scalar SlicingScenario.rsu[0].appl meanRxPacketSize_SCH_41_2113 0
scalar SlicingScenario.rsu[0].appl meanTxPacketSize_SCH_41_2113 0
scalar SlicingScenario.rsu[0].appl meanRxThroughput_SCH_41_2113 0
scalar SlicingScenario.rsu[0].appl meanTxThroughput_SCH_41_2113 0
scalar SlicingScenario.rsu[0].appl rxTimeOfService_SCH_41_2113 0
scalar SlicingScenario.rsu[0].appl txTimeOfService_SCH_41_2113 0
scalar SlicingScenario.rsu[0].appl txPackets_SCH_41_2125 0
scalar SlicingScenario.rsu[0].appl rxPackets_SCH_41_2125 0
scalar SlicingScenario.rsu[0].appl rxNeighborPackets_SCH_41_2125 0
scalar SlicingScenario.rsu[0].appl meanDelay_SCH_41_2125 0
scalar SlicingScenario.rsu[0].appl meanJitter_SCH_41_2125 0
scalar SlicingScenario.rsu[0].appl meanRxPacketSize_SCH_41_2125 0
scalar SlicingScenario.rsu[0].appl meanTxPacketSize_SCH_41_2125 0
scalar SlicingScenario.rsu[0].appl meanRxThroughput_SCH_41_2125 0
scalar SlicingScenario.rsu[0].appl meanTxThroughput_SCH_41_2125 0
scalar SlicingScenario.rsu[0].appl rxTimeOfService_SCH_41_2125 0
scalar SlicingScenario.rsu[0].appl txTimeOfService_SCH_41_2125 0
scalar SlicingScenario.rsu[0].appl txPackets_SCH_41_2131 0
scalar SlicingScenario.rsu[0].appl rxPackets_SCH_41_2131 0
scalar SlicingScenario.rsu[0].appl rxNeighborPackets_SCH_41_2131 0
scalar SlicingScenario.rsu[0].appl meanDelay_SCH_41_2131 0
scalar SlicingScenario.rsu[0].appl meanJitter_SCH_41_2131 0
scalar SlicingScenario.rsu[0].appl meanRxPacketSize_SCH_41_2131 0
scalar SlicingScenario.rsu[0].appl meanTxPacketSize_SCH_41_2131 0
scalar SlicingScenario.rsu[0].appl meanRxThroughput_SCH_41_2131 0
scalar SlicingScenario.rsu[0].appl meanTxThroughput_SCH_41_2131 0
scalar SlicingScenario.rsu[0].appl rxTimeOfService_SCH_41_2131 0
scalar SlicingScenario.rsu[0].appl txTimeOfService_SCH_41_2131 0
scalar SlicingScenario.rsu[0].appl txPackets_SCH_41_2155 0
scalar SlicingScenario.rsu[0].appl rxPackets_SCH_41_2155 0
scalar SlicingScenario.rsu[0].appl rxNeighborPackets_SCH_41_2155 0
scalar SlicingScenario.rsu[0].appl meanDelay_SCH_41_2155 0
scalar SlicingScenario.rsu[0].appl meanJitter_SCH_41_2155 0
scalar SlicingScenario.rsu[0].appl meanRxPacketSize_SCH_41_2155 0
scalar SlicingScenario.rsu[0].appl meanTxPacketSize_SCH_41_2155 0
scalar SlicingScenario.rsu[0].appl meanRxThroughput_SCH_41_2155 0
scalar SlicingScenario.rsu[0].appl meanTxThroughput_SCH_41_2155 0
scalar SlicingScenario.rsu[0].appl rxTimeOfService_SCH_41_2155 0
scalar SlicingScenario.rsu[0].appl txTimeOfService_SCH_41_2155 0
scalar SlicingScenario.rsu[0].appl txPackets_SCH_41_2161 0
scalar SlicingScenario.rsu[0].appl rxPackets_SCH_41_2161 0
scalar SlicingScenario.rsu[0].appl rxNeighborPackets_SCH_41_2161 0
scalar SlicingScenario.rsu[0].appl meanDelay_SCH_41_2161 0
scalar SlicingScenario.rsu[0].appl meanJitter_SCH_41_2161 0
scalar SlicingScenario.rsu[0].appl meanRxPacketSize_SCH_41_2161 0
scalar SlicingScenario.rsu[0].appl meanTxPacketSize_SCH_41_2161 0
scalar SlicingScenario.rsu[0].appl meanRxThroughput_SCH_41_2161 0
scalar SlicingScenario.rsu[0].appl meanTxThroughput_SCH_41_2161 0
scalar SlicingScenario.rsu[0].appl rxTimeOfService_SCH_41_2161 0
scalar SlicingScenario.rsu[0].appl txTimeOfService_SCH_41_2161 0
scalar SlicingScenario.rsu[0].appl txPackets_SCH_41_2173 0
scalar SlicingScenario.rsu[0].appl rxPackets_SCH_41_2173 0
scalar SlicingScenario.rsu[0].appl rxNeighborPackets_SCH_41_2173 0
scalar SlicingScenario.rsu[0].appl meanDelay_SCH_41_2173 0
scalar SlicingScenario.rsu[0].appl meanJitter_SCH_41_2173 0
scalar SlicingScenario.rsu[0].appl meanRxPacketSize_SCH_41_2173 0
scalar SlicingScenario.rsu[0].appl meanTxPacketSize_SCH_41_2173 0
scalar SlicingScenario.rsu[0].appl meanRxThroughput_SCH_41_2173 0
scalar SlicingScenario.rsu[0].appl meanTxThroughput_SCH_41_2173 0
scalar SlicingScenario.rsu[0].appl rxTimeOfService_SCH_41_2173 0
scalar SlicingScenario.rsu[0].appl txTimeOfService_SCH_41_2173 0
scalar SlicingScenario.rsu[0].appl txPackets_SCH_41_2179 0
scalar SlicingScenario.rsu[0].appl rxPackets_SCH_41_2179 0
scalar SlicingScenario.rsu[0].appl rxNeighborPackets_SCH_41_2179 0
scalar SlicingScenario.rsu[0].appl meanDelay_SCH_41_2179 0
scalar SlicingScenario.rsu[0].appl meanJitter_SCH_41_2179 0
scalar SlicingScenario.rsu[0].appl meanRxPacketSize_SCH_41_2179 0
scalar SlicingScenario.rsu[0].appl meanTxPacketSize_SCH_41_2179 0
scalar SlicingScenario.rsu[0].appl meanRxThroughput_SCH_41_2179 0
scalar SlicingScenario.rsu[0].appl meanTxThroughput_SCH_41_2179 0
scalar SlicingScenario.rsu[0].appl rxTimeOfService_SCH_41_2179 0
scalar SlicingScenario.rsu[0].appl txTimeOfService_SCH_41_2179 0
scalar SlicingScenario.rsu[0].nic.phy80211p busyTime 0
scalar SlicingScenario.rsu[0].nic.phy80211p ncollisions 0
scalar SlicingScenario.rsu[0].nic.phy80211p UnderSensitivityPackets 0
scalar SlicingScenario.rsu[0].nic.mac1609_4 ReceivedUnicastPackets_CCH 0
scalar SlicingScenario.rsu[0].nic.mac1609_4 ReceivedBroadcasts_CCH 0
scalar SlicingScenario.rsu[0].nic.mac1609_4 SentPackets_CCH 0
scalar SlicingScenario.rsu[0].nic.mac1609_4 SentAcknowledgements_CCH 0
scalar SlicingScenario.rsu[0].nic.mac1609_4 SNIRLostPackets_CCH 0
scalar SlicingScenario.rsu[0].nic.mac1609_4 RXTXLostPackets_CCH 0
scalar SlicingScenario.rsu[0].nic.mac1609_4 TotalLostPackets_CCH 0
scalar SlicingScenario.rsu[0].nic.mac1609_4 DroppedPacketsInMac_CCH 0
scalar SlicingScenario.rsu[0].nic.mac1609_4 TooLittleTime_CCH 0
scalar SlicingScenario.rsu[0].nic.mac1609_4 TimesIntoBackoff_CCH 0
scalar SlicingScenario.rsu[0].nic.mac1609_4 SlotsBackoff_CCH 0
scalar SlicingScenario.rsu[0].nic.mac1609_4 NumInternalContention_CCH 0
scalar SlicingScenario.rsu[0].nic.mac1609_4 RemainingPacketsInEDCA_CCH 0
scalar SlicingScenario.rsu[0].nic.mac1609_4 totalBusyTime_CCH 0
scalar SlicingScenario.rsu[0].nic.mac1609_4 ReceivedUnicastPackets_SCH 0
scalar SlicingScenario.rsu[0].nic.mac1609_4 ReceivedBroadcasts_SCH 0
scalar SlicingScenario.rsu[0].nic.mac1609_4 SentPackets_SCH 62589
scalar SlicingScenario.rsu[0].nic.mac1609_4 SentAcknowledgements_SCH 0
scalar SlicingScenario.rsu[0].nic.mac1609_4 SNIRLostPackets_SCH 0
scalar SlicingScenario.rsu[0].nic.mac1609_4 RXTXLostPackets_SCH 0
scalar SlicingScenario.rsu[0].nic.mac1609_4 TotalLostPackets_SCH 0
scalar SlicingScenario.rsu[0].nic.mac1609_4 DroppedPacketsInMac_SCH 0
scalar SlicingScenario.rsu[0].nic.mac1609_4 TooLittleTime_SCH 47277
scalar SlicingScenario.rsu[0].nic.mac1609_4 TimesIntoBackoff_SCH 65075
scalar SlicingScenario.rsu[0].nic.mac1609_4 SlotsBackoff_SCH 218319
scalar SlicingScenario.rsu[0].nic.mac1609_4 NumInternalContention_SCH 0
scalar SlicingScenario.rsu[0].nic.mac1609_4 RemainingPacketsInEDCA_SCH 502562
scalar SlicingScenario.rsu[0].nic.mac1609_4 totalBusyTime_SCH 124.079277

