version 2
run General-203-20190223-14:32:07-11867
attr configname General
attr datetime 20190223-14:32:07
attr experiment General
attr inifile omnetpp.ini
attr iterationvars "$vehicles=40, $msgSizeA=1500B, $serviceMsgInterval=4s"
attr iterationvarsf vehicles=40,msgSizeA=1500B,serviceMsgInterval=4s-
attr measurement "$vehicles=40, $msgSizeA=1500B, $serviceMsgInterval=4s"
attr network com.liborio.slicing.SlicingScenario
attr processid 11867
attr repetition 3
attr replication #3
attr resultdir results
attr runnumber 203
attr seedset 3
itervar msgSizeA 1500B
itervar serviceMsgInterval 4s
itervar vehicles 40
param **.debug false
param **.coreDebug false
param *.playgroundSizeX 1200m
param *.playgroundSizeY 1200m
param *.playgroundSizeZ 50m
param *.annotations.draw true
param *.manager.updateInterval 1s
param *.manager.host "\"localhost\""
param *.manager.port 9999
param *.manager.autoShutdown true
param *.manager.launchConfig "xmldoc(\"highway-\"+string(40)+\".launchd.xml\")"
param *.connectionManager.sendDirect true
param *.connectionManager.maxInterfDist 2600m
param *.connectionManager.drawMaxIntfDist false
param *.rsu[*].applType "\"RSUApp\""
param *.rsu[*].appl.headerLength "80 bit"
param *.rsu[*].appl.sendBeacons false
param *.rsu[*].appl.dataOnSch true
param *.rsu[*].appl.beaconInterval 1s
param *.rsu[*].appl.beaconUserPriority 7
param *.rsu[*].appl.dataUserPriority 5
param *.rsu[*].appl.entMsgADataLengthBytes 1500B
param *.rsu[*].appl.entMsgAUserPriority 4
param *.rsu[*].appl.entMsgAInterval 4s
param *.rsu[*].appl.entMsgBDataLengthBytes 1500B
param *.rsu[*].appl.entMsgBUserPriority 4
param *.rsu[*].appl.entMsgBInterval 4s
param *.rsu[*].nic.mac1609_4.useServiceChannel true
param *.rsu[*].nic.mac1609_4.txPower 20mW
param *.rsu[*].nic.mac1609_4.bitrate 6Mbps
param *.rsu[*].nic.phy80211p.sensitivity -90.00dBm
param *.rsu[0].mobility.x 515.0
param *.rsu[0].mobility.y 25.0
param *.rsu[0].mobility.z 3
param *.node[*].applType "\"VehApp\""
param *.node[*].appl.headerLength "80 bit"
param *.node[*].appl.sendBeacons false
param *.node[*].appl.dataOnSch true
param *.node[*].appl.beaconInterval 1s
param *.node[*].appl.wsaInterval 1s
param *.node[*].appl.entMsgADataLengthBits 1500B
param *.node[*].appl.entMsgAUserPriority 4
param *.node[*].appl.entMsgAInterval 4s
param *.node[*].appl.entMsgBDataLengthBits 1500B
param *.node[*].appl.entMsgBUserPriority 4
param *.node[*].appl.entMsgBInterval 4s
param *.node[*].nic.mac1609_4.useServiceChannel true
param *.node[*].nic.mac1609_4.txPower 20mW
param *.node[*].nic.mac1609_4.bitrate 6Mbps
param *.node[*].nic.phy80211p.sensitivity -90.00dBm
param *.node[*].veinsmobilityType.debug true
param *.node[*].veinsmobility.x 0
param *.node[*].veinsmobility.y 0
param *.node[*].veinsmobility.z 1.895
param *.**.nic.phy80211p.useThermalNoise true
param *.**.nic.phy80211p.thermalNoise -110dBm
param *.**.nic.phy80211p.decider "xmldoc(\"config.xml\")"
param *.**.nic.phy80211p.analogueModels "xmldoc(\"config.xml\")"
param *.**.nic.phy80211p.usePropagationDelay true
param *.**.nic.phy80211p.antenna "xmldoc(\"antenna.xml\", \"/root/Antenna[@id='monopole']\")"
param *.**.nic.phy80211p.collectCollisionStatistics true
param *.**.nic.phy80211p.allowTxDuringRx false

scalar SlicingScenario.node[0].appl txPackets_13 0
scalar SlicingScenario.node[0].appl rxPackets_13 0
scalar SlicingScenario.node[0].appl rxNeighborPackets_13 0
scalar SlicingScenario.node[0].appl meanDelay_13 0
scalar SlicingScenario.node[0].appl meanJitter_13 0
scalar SlicingScenario.node[0].appl meanRxPacketSize_13 0
scalar SlicingScenario.node[0].appl meanTxPacketSize_13 0
scalar SlicingScenario.node[0].appl meanRxThroughput_13 0
scalar SlicingScenario.node[0].appl meanTxThroughput_13 0
scalar SlicingScenario.node[0].appl rxTimeOfService_13 0
scalar SlicingScenario.node[0].appl txTimeOfService_13 0
scalar SlicingScenario.node[0].appl txPackets_40_13 0
scalar SlicingScenario.node[0].appl rxPackets_40_13 21
scalar SlicingScenario.node[0].appl rxNeighborPackets_40_13 260
scalar SlicingScenario.node[0].appl meanDelay_40_13 0.002075114647
scalar SlicingScenario.node[0].appl meanJitter_40_13 0.000103929415
scalar SlicingScenario.node[0].appl meanRxPacketSize_40_13 1510
scalar SlicingScenario.node[0].appl meanTxPacketSize_40_13 0
scalar SlicingScenario.node[0].appl meanRxThroughput_40_13 3171.0000010733
scalar SlicingScenario.node[0].appl meanTxThroughput_40_13 0
scalar SlicingScenario.node[0].appl rxTimeOfService_40_13 79.999999972922
scalar SlicingScenario.node[0].appl txTimeOfService_40_13 0
scalar SlicingScenario.node[0].nic.phy80211p busyTime 0.010723826086956
scalar SlicingScenario.node[0].nic.phy80211p ncollisions 0
scalar SlicingScenario.node[0].nic.phy80211p UnderSensitivityPackets 59
scalar SlicingScenario.node[0].nic.mac1609_4 ReceivedUnicastPackets_CCH 0
scalar SlicingScenario.node[0].nic.mac1609_4 ReceivedBroadcasts_CCH 0
scalar SlicingScenario.node[0].nic.mac1609_4 SentPackets_CCH 0
scalar SlicingScenario.node[0].nic.mac1609_4 SentAcknowledgements_CCH 0
scalar SlicingScenario.node[0].nic.mac1609_4 SNIRLostPackets_CCH 0
scalar SlicingScenario.node[0].nic.mac1609_4 RXTXLostPackets_CCH 0
scalar SlicingScenario.node[0].nic.mac1609_4 TotalLostPackets_CCH 0
scalar SlicingScenario.node[0].nic.mac1609_4 DroppedPacketsInMac_CCH 0
scalar SlicingScenario.node[0].nic.mac1609_4 TooLittleTime_CCH 0
scalar SlicingScenario.node[0].nic.mac1609_4 TimesIntoBackoff_CCH 0
scalar SlicingScenario.node[0].nic.mac1609_4 SlotsBackoff_CCH 0
scalar SlicingScenario.node[0].nic.mac1609_4 NumInternalContention_CCH 0
scalar SlicingScenario.node[0].nic.mac1609_4 RemainingPacketsInEDCA_CCH 0
scalar SlicingScenario.node[0].nic.mac1609_4 totalBusyTime_CCH 0
scalar SlicingScenario.node[0].nic.mac1609_4 ReceivedUnicastPackets_SCH 0
scalar SlicingScenario.node[0].nic.mac1609_4 ReceivedBroadcasts_SCH 478
scalar SlicingScenario.node[0].nic.mac1609_4 SentPackets_SCH 0
scalar SlicingScenario.node[0].nic.mac1609_4 SentAcknowledgements_SCH 0
scalar SlicingScenario.node[0].nic.mac1609_4 SNIRLostPackets_SCH 0
scalar SlicingScenario.node[0].nic.mac1609_4 RXTXLostPackets_SCH 0
scalar SlicingScenario.node[0].nic.mac1609_4 TotalLostPackets_SCH 0
scalar SlicingScenario.node[0].nic.mac1609_4 DroppedPacketsInMac_SCH 0
scalar SlicingScenario.node[0].nic.mac1609_4 TooLittleTime_SCH 0
scalar SlicingScenario.node[0].nic.mac1609_4 TimesIntoBackoff_SCH 0
scalar SlicingScenario.node[0].nic.mac1609_4 SlotsBackoff_SCH 0
scalar SlicingScenario.node[0].nic.mac1609_4 NumInternalContention_SCH 0
scalar SlicingScenario.node[0].nic.mac1609_4 RemainingPacketsInEDCA_SCH 0
scalar SlicingScenario.node[0].nic.mac1609_4 totalBusyTime_SCH 0.986592
scalar SlicingScenario.node[0].veinsmobility startTime 1
scalar SlicingScenario.node[0].veinsmobility totalTime 91
scalar SlicingScenario.node[0].veinsmobility stopTime 93
scalar SlicingScenario.node[0].veinsmobility minSpeed 10.612945167944
scalar SlicingScenario.node[0].veinsmobility maxSpeed 11.10522784166
scalar SlicingScenario.node[0].veinsmobility totalDistance 976.5171929333
scalar SlicingScenario.node[0].veinsmobility totalCO2Emission 157.68889872884
scalar SlicingScenario.node[2].appl txPackets_25 0
scalar SlicingScenario.node[2].appl rxPackets_25 0
scalar SlicingScenario.node[2].appl rxNeighborPackets_25 0
scalar SlicingScenario.node[2].appl meanDelay_25 0
scalar SlicingScenario.node[2].appl meanJitter_25 0
scalar SlicingScenario.node[2].appl meanRxPacketSize_25 0
scalar SlicingScenario.node[2].appl meanTxPacketSize_25 0
scalar SlicingScenario.node[2].appl meanRxThroughput_25 0
scalar SlicingScenario.node[2].appl meanTxThroughput_25 0
scalar SlicingScenario.node[2].appl rxTimeOfService_25 0
scalar SlicingScenario.node[2].appl txTimeOfService_25 0
scalar SlicingScenario.node[2].appl txPackets_40_25 0
scalar SlicingScenario.node[2].appl rxPackets_40_25 20
scalar SlicingScenario.node[2].appl rxNeighborPackets_40_25 270
scalar SlicingScenario.node[2].appl meanDelay_40_25 0.002071582384
scalar SlicingScenario.node[2].appl meanJitter_40_25 0.000109201194
scalar SlicingScenario.node[2].appl meanRxPacketSize_40_25 1510
scalar SlicingScenario.node[2].appl meanTxPacketSize_40_25 0
scalar SlicingScenario.node[2].appl meanRxThroughput_40_25 3178.9473692647
scalar SlicingScenario.node[2].appl meanTxThroughput_40_25 0
scalar SlicingScenario.node[2].appl rxTimeOfService_40_25 75.99999997983
scalar SlicingScenario.node[2].appl txTimeOfService_40_25 0
scalar SlicingScenario.node[2].nic.phy80211p busyTime 0.011105217391304
scalar SlicingScenario.node[2].nic.phy80211p ncollisions 0
scalar SlicingScenario.node[2].nic.phy80211p UnderSensitivityPackets 63
scalar SlicingScenario.node[2].nic.mac1609_4 ReceivedUnicastPackets_CCH 0
scalar SlicingScenario.node[2].nic.mac1609_4 ReceivedBroadcasts_CCH 0
scalar SlicingScenario.node[2].nic.mac1609_4 SentPackets_CCH 0
scalar SlicingScenario.node[2].nic.mac1609_4 SentAcknowledgements_CCH 0
scalar SlicingScenario.node[2].nic.mac1609_4 SNIRLostPackets_CCH 0
scalar SlicingScenario.node[2].nic.mac1609_4 RXTXLostPackets_CCH 0
scalar SlicingScenario.node[2].nic.mac1609_4 TotalLostPackets_CCH 0
scalar SlicingScenario.node[2].nic.mac1609_4 DroppedPacketsInMac_CCH 0
scalar SlicingScenario.node[2].nic.mac1609_4 TooLittleTime_CCH 0
scalar SlicingScenario.node[2].nic.mac1609_4 TimesIntoBackoff_CCH 0
scalar SlicingScenario.node[2].nic.mac1609_4 SlotsBackoff_CCH 0
scalar SlicingScenario.node[2].nic.mac1609_4 NumInternalContention_CCH 0
scalar SlicingScenario.node[2].nic.mac1609_4 RemainingPacketsInEDCA_CCH 0
scalar SlicingScenario.node[2].nic.mac1609_4 totalBusyTime_CCH 0
scalar SlicingScenario.node[2].nic.mac1609_4 ReceivedUnicastPackets_SCH 0
scalar SlicingScenario.node[2].nic.mac1609_4 ReceivedBroadcasts_SCH 495
scalar SlicingScenario.node[2].nic.mac1609_4 SentPackets_SCH 0
scalar SlicingScenario.node[2].nic.mac1609_4 SentAcknowledgements_SCH 0
scalar SlicingScenario.node[2].nic.mac1609_4 SNIRLostPackets_SCH 0
scalar SlicingScenario.node[2].nic.mac1609_4 RXTXLostPackets_SCH 0
scalar SlicingScenario.node[2].nic.mac1609_4 TotalLostPackets_SCH 0
scalar SlicingScenario.node[2].nic.mac1609_4 DroppedPacketsInMac_SCH 0
scalar SlicingScenario.node[2].nic.mac1609_4 TooLittleTime_SCH 0
scalar SlicingScenario.node[2].nic.mac1609_4 TimesIntoBackoff_SCH 0
scalar SlicingScenario.node[2].nic.mac1609_4 SlotsBackoff_SCH 0
scalar SlicingScenario.node[2].nic.mac1609_4 NumInternalContention_SCH 0
scalar SlicingScenario.node[2].nic.mac1609_4 RemainingPacketsInEDCA_SCH 0
scalar SlicingScenario.node[2].nic.mac1609_4 totalBusyTime_SCH 1.02168
scalar SlicingScenario.node[2].veinsmobility startTime 3
scalar SlicingScenario.node[2].veinsmobility totalTime 91
scalar SlicingScenario.node[2].veinsmobility stopTime 95
scalar SlicingScenario.node[2].veinsmobility minSpeed 10.614974306794
scalar SlicingScenario.node[2].veinsmobility maxSpeed 11.105600149734
scalar SlicingScenario.node[2].veinsmobility totalDistance 977.87943094676
scalar SlicingScenario.node[2].veinsmobility totalCO2Emission 159.44310818549
scalar SlicingScenario.node[1].appl txPackets_19 0
scalar SlicingScenario.node[1].appl rxPackets_19 0
scalar SlicingScenario.node[1].appl rxNeighborPackets_19 0
scalar SlicingScenario.node[1].appl meanDelay_19 0
scalar SlicingScenario.node[1].appl meanJitter_19 0
scalar SlicingScenario.node[1].appl meanRxPacketSize_19 0
scalar SlicingScenario.node[1].appl meanTxPacketSize_19 0
scalar SlicingScenario.node[1].appl meanRxThroughput_19 0
scalar SlicingScenario.node[1].appl meanTxThroughput_19 0
scalar SlicingScenario.node[1].appl rxTimeOfService_19 0
scalar SlicingScenario.node[1].appl txTimeOfService_19 0
scalar SlicingScenario.node[1].appl txPackets_40_19 0
scalar SlicingScenario.node[1].appl rxPackets_40_19 21
scalar SlicingScenario.node[1].appl rxNeighborPackets_40_19 269
scalar SlicingScenario.node[1].appl meanDelay_40_19 0.00379445497
scalar SlicingScenario.node[1].appl meanJitter_40_19 0.000293221966
scalar SlicingScenario.node[1].appl meanRxPacketSize_40_19 1510
scalar SlicingScenario.node[1].appl meanTxPacketSize_40_19 0
scalar SlicingScenario.node[1].appl meanRxThroughput_40_19 3170.9168824913
scalar SlicingScenario.node[1].appl meanTxThroughput_40_19 0
scalar SlicingScenario.node[1].appl rxTimeOfService_40_19 80.002096996213
scalar SlicingScenario.node[1].appl txTimeOfService_40_19 0
scalar SlicingScenario.node[1].nic.phy80211p busyTime 0.010985806451613
scalar SlicingScenario.node[1].nic.phy80211p ncollisions 0
scalar SlicingScenario.node[1].nic.phy80211p UnderSensitivityPackets 64
scalar SlicingScenario.node[1].nic.mac1609_4 ReceivedUnicastPackets_CCH 0
scalar SlicingScenario.node[1].nic.mac1609_4 ReceivedBroadcasts_CCH 0
scalar SlicingScenario.node[1].nic.mac1609_4 SentPackets_CCH 0
scalar SlicingScenario.node[1].nic.mac1609_4 SentAcknowledgements_CCH 0
scalar SlicingScenario.node[1].nic.mac1609_4 SNIRLostPackets_CCH 0
scalar SlicingScenario.node[1].nic.mac1609_4 RXTXLostPackets_CCH 0
scalar SlicingScenario.node[1].nic.mac1609_4 TotalLostPackets_CCH 0
scalar SlicingScenario.node[1].nic.mac1609_4 DroppedPacketsInMac_CCH 0
scalar SlicingScenario.node[1].nic.mac1609_4 TooLittleTime_CCH 0
scalar SlicingScenario.node[1].nic.mac1609_4 TimesIntoBackoff_CCH 0
scalar SlicingScenario.node[1].nic.mac1609_4 SlotsBackoff_CCH 0
scalar SlicingScenario.node[1].nic.mac1609_4 NumInternalContention_CCH 0
scalar SlicingScenario.node[1].nic.mac1609_4 RemainingPacketsInEDCA_CCH 0
scalar SlicingScenario.node[1].nic.mac1609_4 totalBusyTime_CCH 0
scalar SlicingScenario.node[1].nic.mac1609_4 ReceivedUnicastPackets_SCH 0
scalar SlicingScenario.node[1].nic.mac1609_4 ReceivedBroadcasts_SCH 495
scalar SlicingScenario.node[1].nic.mac1609_4 SentPackets_SCH 0
scalar SlicingScenario.node[1].nic.mac1609_4 SentAcknowledgements_SCH 0
scalar SlicingScenario.node[1].nic.mac1609_4 SNIRLostPackets_SCH 0
scalar SlicingScenario.node[1].nic.mac1609_4 RXTXLostPackets_SCH 0
scalar SlicingScenario.node[1].nic.mac1609_4 TotalLostPackets_SCH 0
scalar SlicingScenario.node[1].nic.mac1609_4 DroppedPacketsInMac_SCH 0
scalar SlicingScenario.node[1].nic.mac1609_4 TooLittleTime_SCH 0
scalar SlicingScenario.node[1].nic.mac1609_4 TimesIntoBackoff_SCH 0
scalar SlicingScenario.node[1].nic.mac1609_4 SlotsBackoff_SCH 0
scalar SlicingScenario.node[1].nic.mac1609_4 NumInternalContention_SCH 0
scalar SlicingScenario.node[1].nic.mac1609_4 RemainingPacketsInEDCA_SCH 0
scalar SlicingScenario.node[1].nic.mac1609_4 totalBusyTime_SCH 1.02168
scalar SlicingScenario.node[1].veinsmobility startTime 2
scalar SlicingScenario.node[1].veinsmobility totalTime 92
scalar SlicingScenario.node[1].veinsmobility stopTime 95
scalar SlicingScenario.node[1].veinsmobility minSpeed 7.9387755916552
scalar SlicingScenario.node[1].veinsmobility maxSpeed 11.108576497543
scalar SlicingScenario.node[1].veinsmobility totalDistance 979.22534942578
scalar SlicingScenario.node[1].veinsmobility totalCO2Emission 166.62657264951
scalar SlicingScenario.node[3].appl txPackets_31 0
scalar SlicingScenario.node[3].appl rxPackets_31 0
scalar SlicingScenario.node[3].appl rxNeighborPackets_31 0
scalar SlicingScenario.node[3].appl meanDelay_31 0
scalar SlicingScenario.node[3].appl meanJitter_31 0
scalar SlicingScenario.node[3].appl meanRxPacketSize_31 0
scalar SlicingScenario.node[3].appl meanTxPacketSize_31 0
scalar SlicingScenario.node[3].appl meanRxThroughput_31 0
scalar SlicingScenario.node[3].appl meanTxThroughput_31 0
scalar SlicingScenario.node[3].appl rxTimeOfService_31 0
scalar SlicingScenario.node[3].appl txTimeOfService_31 0
scalar SlicingScenario.node[3].appl txPackets_40_31 0
scalar SlicingScenario.node[3].appl rxPackets_40_31 21
scalar SlicingScenario.node[3].appl rxNeighborPackets_40_31 278
scalar SlicingScenario.node[3].appl meanDelay_40_31 0.002075311998
scalar SlicingScenario.node[3].appl meanJitter_40_31 0.00010483591
scalar SlicingScenario.node[3].appl meanRxPacketSize_40_31 1510
scalar SlicingScenario.node[3].appl meanTxPacketSize_40_31 0
scalar SlicingScenario.node[3].appl meanRxThroughput_40_31 3170.9998844899
scalar SlicingScenario.node[3].appl meanTxThroughput_40_31 0
scalar SlicingScenario.node[3].appl rxTimeOfService_40_31 80.000002914162
scalar SlicingScenario.node[3].appl txTimeOfService_40_31 0
scalar SlicingScenario.node[3].nic.phy80211p busyTime 0.011553913043478
scalar SlicingScenario.node[3].nic.phy80211p ncollisions 0
scalar SlicingScenario.node[3].nic.phy80211p UnderSensitivityPackets 44
scalar SlicingScenario.node[3].nic.mac1609_4 ReceivedUnicastPackets_CCH 0
scalar SlicingScenario.node[3].nic.mac1609_4 ReceivedBroadcasts_CCH 0
scalar SlicingScenario.node[3].nic.mac1609_4 SentPackets_CCH 0
scalar SlicingScenario.node[3].nic.mac1609_4 SentAcknowledgements_CCH 0
scalar SlicingScenario.node[3].nic.mac1609_4 SNIRLostPackets_CCH 0
scalar SlicingScenario.node[3].nic.mac1609_4 RXTXLostPackets_CCH 0
scalar SlicingScenario.node[3].nic.mac1609_4 TotalLostPackets_CCH 0
scalar SlicingScenario.node[3].nic.mac1609_4 DroppedPacketsInMac_CCH 0
scalar SlicingScenario.node[3].nic.mac1609_4 TooLittleTime_CCH 0
scalar SlicingScenario.node[3].nic.mac1609_4 TimesIntoBackoff_CCH 0
scalar SlicingScenario.node[3].nic.mac1609_4 SlotsBackoff_CCH 0
scalar SlicingScenario.node[3].nic.mac1609_4 NumInternalContention_CCH 0
scalar SlicingScenario.node[3].nic.mac1609_4 RemainingPacketsInEDCA_CCH 0
scalar SlicingScenario.node[3].nic.mac1609_4 totalBusyTime_CCH 0
scalar SlicingScenario.node[3].nic.mac1609_4 ReceivedUnicastPackets_SCH 0
scalar SlicingScenario.node[3].nic.mac1609_4 ReceivedBroadcasts_SCH 515
scalar SlicingScenario.node[3].nic.mac1609_4 SentPackets_SCH 0
scalar SlicingScenario.node[3].nic.mac1609_4 SentAcknowledgements_SCH 0
scalar SlicingScenario.node[3].nic.mac1609_4 SNIRLostPackets_SCH 0
scalar SlicingScenario.node[3].nic.mac1609_4 RXTXLostPackets_SCH 0
scalar SlicingScenario.node[3].nic.mac1609_4 TotalLostPackets_SCH 0
scalar SlicingScenario.node[3].nic.mac1609_4 DroppedPacketsInMac_SCH 0
scalar SlicingScenario.node[3].nic.mac1609_4 TooLittleTime_SCH 0
scalar SlicingScenario.node[3].nic.mac1609_4 TimesIntoBackoff_SCH 0
scalar SlicingScenario.node[3].nic.mac1609_4 SlotsBackoff_SCH 0
scalar SlicingScenario.node[3].nic.mac1609_4 NumInternalContention_SCH 0
scalar SlicingScenario.node[3].nic.mac1609_4 RemainingPacketsInEDCA_SCH 0
scalar SlicingScenario.node[3].nic.mac1609_4 totalBusyTime_SCH 1.06296
scalar SlicingScenario.node[3].veinsmobility startTime 4
scalar SlicingScenario.node[3].veinsmobility totalTime 91
scalar SlicingScenario.node[3].veinsmobility stopTime 96
scalar SlicingScenario.node[3].veinsmobility minSpeed 10.614018053995
scalar SlicingScenario.node[3].veinsmobility maxSpeed 11.108956421739
scalar SlicingScenario.node[3].veinsmobility totalDistance 979.24603601509
scalar SlicingScenario.node[3].veinsmobility totalCO2Emission 157.44593052813
scalar SlicingScenario.node[4].appl txPackets_37 0
scalar SlicingScenario.node[4].appl rxPackets_37 0
scalar SlicingScenario.node[4].appl rxNeighborPackets_37 0
scalar SlicingScenario.node[4].appl meanDelay_37 0
scalar SlicingScenario.node[4].appl meanJitter_37 0
scalar SlicingScenario.node[4].appl meanRxPacketSize_37 0
scalar SlicingScenario.node[4].appl meanTxPacketSize_37 0
scalar SlicingScenario.node[4].appl meanRxThroughput_37 0
scalar SlicingScenario.node[4].appl meanTxThroughput_37 0
scalar SlicingScenario.node[4].appl rxTimeOfService_37 0
scalar SlicingScenario.node[4].appl txTimeOfService_37 0
scalar SlicingScenario.node[4].appl txPackets_40_37 0
scalar SlicingScenario.node[4].appl rxPackets_40_37 21
scalar SlicingScenario.node[4].appl rxNeighborPackets_40_37 277
scalar SlicingScenario.node[4].appl meanDelay_40_37 0.002070700475
scalar SlicingScenario.node[4].appl meanJitter_40_37 0.000103710067
scalar SlicingScenario.node[4].appl meanRxPacketSize_40_37 1510
scalar SlicingScenario.node[4].appl meanTxPacketSize_40_37 0
scalar SlicingScenario.node[4].appl meanRxThroughput_40_37 3171.0000008593
scalar SlicingScenario.node[4].appl meanTxThroughput_40_37 0
scalar SlicingScenario.node[4].appl rxTimeOfService_40_37 79.999999978321
scalar SlicingScenario.node[4].appl txTimeOfService_40_37 0
scalar SlicingScenario.node[4].nic.phy80211p busyTime 0.011531478260869
scalar SlicingScenario.node[4].nic.phy80211p ncollisions 0
scalar SlicingScenario.node[4].nic.phy80211p UnderSensitivityPackets 61
scalar SlicingScenario.node[4].nic.mac1609_4 ReceivedUnicastPackets_CCH 0
scalar SlicingScenario.node[4].nic.mac1609_4 ReceivedBroadcasts_CCH 0
scalar SlicingScenario.node[4].nic.mac1609_4 SentPackets_CCH 0
scalar SlicingScenario.node[4].nic.mac1609_4 SentAcknowledgements_CCH 0
scalar SlicingScenario.node[4].nic.mac1609_4 SNIRLostPackets_CCH 0
scalar SlicingScenario.node[4].nic.mac1609_4 RXTXLostPackets_CCH 0
scalar SlicingScenario.node[4].nic.mac1609_4 TotalLostPackets_CCH 0
scalar SlicingScenario.node[4].nic.mac1609_4 DroppedPacketsInMac_CCH 0
scalar SlicingScenario.node[4].nic.mac1609_4 TooLittleTime_CCH 0
scalar SlicingScenario.node[4].nic.mac1609_4 TimesIntoBackoff_CCH 0
scalar SlicingScenario.node[4].nic.mac1609_4 SlotsBackoff_CCH 0
scalar SlicingScenario.node[4].nic.mac1609_4 NumInternalContention_CCH 0
scalar SlicingScenario.node[4].nic.mac1609_4 RemainingPacketsInEDCA_CCH 0
scalar SlicingScenario.node[4].nic.mac1609_4 totalBusyTime_CCH 0
scalar SlicingScenario.node[4].nic.mac1609_4 ReceivedUnicastPackets_SCH 0
scalar SlicingScenario.node[4].nic.mac1609_4 ReceivedBroadcasts_SCH 514
scalar SlicingScenario.node[4].nic.mac1609_4 SentPackets_SCH 0
scalar SlicingScenario.node[4].nic.mac1609_4 SentAcknowledgements_SCH 0
scalar SlicingScenario.node[4].nic.mac1609_4 SNIRLostPackets_SCH 0
scalar SlicingScenario.node[4].nic.mac1609_4 RXTXLostPackets_SCH 0
scalar SlicingScenario.node[4].nic.mac1609_4 TotalLostPackets_SCH 0
scalar SlicingScenario.node[4].nic.mac1609_4 DroppedPacketsInMac_SCH 0
scalar SlicingScenario.node[4].nic.mac1609_4 TooLittleTime_SCH 0
scalar SlicingScenario.node[4].nic.mac1609_4 TimesIntoBackoff_SCH 0
scalar SlicingScenario.node[4].nic.mac1609_4 SlotsBackoff_SCH 0
scalar SlicingScenario.node[4].nic.mac1609_4 NumInternalContention_SCH 0
scalar SlicingScenario.node[4].nic.mac1609_4 RemainingPacketsInEDCA_SCH 0
scalar SlicingScenario.node[4].nic.mac1609_4 totalBusyTime_SCH 1.060896
scalar SlicingScenario.node[4].veinsmobility startTime 5
scalar SlicingScenario.node[4].veinsmobility totalTime 91
scalar SlicingScenario.node[4].veinsmobility stopTime 97
scalar SlicingScenario.node[4].veinsmobility minSpeed 10.614044240923
scalar SlicingScenario.node[4].veinsmobility maxSpeed 11.100774747566
scalar SlicingScenario.node[4].veinsmobility totalDistance 977.35625548666
scalar SlicingScenario.node[4].veinsmobility totalCO2Emission 160.32886197701
scalar SlicingScenario.node[5].appl txPackets_43 0
scalar SlicingScenario.node[5].appl rxPackets_43 0
scalar SlicingScenario.node[5].appl rxNeighborPackets_43 0
scalar SlicingScenario.node[5].appl meanDelay_43 0
scalar SlicingScenario.node[5].appl meanJitter_43 0
scalar SlicingScenario.node[5].appl meanRxPacketSize_43 0
scalar SlicingScenario.node[5].appl meanTxPacketSize_43 0
scalar SlicingScenario.node[5].appl meanRxThroughput_43 0
scalar SlicingScenario.node[5].appl meanTxThroughput_43 0
scalar SlicingScenario.node[5].appl rxTimeOfService_43 0
scalar SlicingScenario.node[5].appl txTimeOfService_43 0
scalar SlicingScenario.node[5].appl txPackets_40_43 0
scalar SlicingScenario.node[5].appl rxPackets_40_43 21
scalar SlicingScenario.node[5].appl rxNeighborPackets_40_43 287
scalar SlicingScenario.node[5].appl meanDelay_40_43 0.002072410689
scalar SlicingScenario.node[5].appl meanJitter_40_43 0.000103858346
scalar SlicingScenario.node[5].appl meanRxPacketSize_40_43 1510
scalar SlicingScenario.node[5].appl meanTxPacketSize_40_43 0
scalar SlicingScenario.node[5].appl meanRxThroughput_40_43 3170.9996807233
scalar SlicingScenario.node[5].appl meanTxThroughput_40_43 0
scalar SlicingScenario.node[5].appl rxTimeOfService_40_43 80.000008054915
scalar SlicingScenario.node[5].appl txTimeOfService_40_43 0
scalar SlicingScenario.node[5].nic.phy80211p busyTime 0.011912869565217
scalar SlicingScenario.node[5].nic.phy80211p ncollisions 0
scalar SlicingScenario.node[5].nic.phy80211p UnderSensitivityPackets 46
scalar SlicingScenario.node[5].nic.mac1609_4 ReceivedUnicastPackets_CCH 0
scalar SlicingScenario.node[5].nic.mac1609_4 ReceivedBroadcasts_CCH 0
scalar SlicingScenario.node[5].nic.mac1609_4 SentPackets_CCH 0
scalar SlicingScenario.node[5].nic.mac1609_4 SentAcknowledgements_CCH 0
scalar SlicingScenario.node[5].nic.mac1609_4 SNIRLostPackets_CCH 0
scalar SlicingScenario.node[5].nic.mac1609_4 RXTXLostPackets_CCH 0
scalar SlicingScenario.node[5].nic.mac1609_4 TotalLostPackets_CCH 0
scalar SlicingScenario.node[5].nic.mac1609_4 DroppedPacketsInMac_CCH 0
scalar SlicingScenario.node[5].nic.mac1609_4 TooLittleTime_CCH 0
scalar SlicingScenario.node[5].nic.mac1609_4 TimesIntoBackoff_CCH 0
scalar SlicingScenario.node[5].nic.mac1609_4 SlotsBackoff_CCH 0
scalar SlicingScenario.node[5].nic.mac1609_4 NumInternalContention_CCH 0
scalar SlicingScenario.node[5].nic.mac1609_4 RemainingPacketsInEDCA_CCH 0
scalar SlicingScenario.node[5].nic.mac1609_4 totalBusyTime_CCH 0
scalar SlicingScenario.node[5].nic.mac1609_4 ReceivedUnicastPackets_SCH 0
scalar SlicingScenario.node[5].nic.mac1609_4 ReceivedBroadcasts_SCH 531
scalar SlicingScenario.node[5].nic.mac1609_4 SentPackets_SCH 0
scalar SlicingScenario.node[5].nic.mac1609_4 SentAcknowledgements_SCH 0
scalar SlicingScenario.node[5].nic.mac1609_4 SNIRLostPackets_SCH 0
scalar SlicingScenario.node[5].nic.mac1609_4 RXTXLostPackets_SCH 0
scalar SlicingScenario.node[5].nic.mac1609_4 TotalLostPackets_SCH 0
scalar SlicingScenario.node[5].nic.mac1609_4 DroppedPacketsInMac_SCH 0
scalar SlicingScenario.node[5].nic.mac1609_4 TooLittleTime_SCH 0
scalar SlicingScenario.node[5].nic.mac1609_4 TimesIntoBackoff_SCH 0
scalar SlicingScenario.node[5].nic.mac1609_4 SlotsBackoff_SCH 0
scalar SlicingScenario.node[5].nic.mac1609_4 NumInternalContention_SCH 0
scalar SlicingScenario.node[5].nic.mac1609_4 RemainingPacketsInEDCA_SCH 0
scalar SlicingScenario.node[5].nic.mac1609_4 totalBusyTime_SCH 1.095984
scalar SlicingScenario.node[5].veinsmobility startTime 6
scalar SlicingScenario.node[5].veinsmobility totalTime 91
scalar SlicingScenario.node[5].veinsmobility stopTime 98
scalar SlicingScenario.node[5].veinsmobility minSpeed 10.612007581294
scalar SlicingScenario.node[5].veinsmobility maxSpeed 11.104966131868
scalar SlicingScenario.node[5].veinsmobility totalDistance 978.14565440855
scalar SlicingScenario.node[5].veinsmobility totalCO2Emission 158.25524939557
scalar SlicingScenario.node[6].appl txPackets_49 0
scalar SlicingScenario.node[6].appl rxPackets_49 0
scalar SlicingScenario.node[6].appl rxNeighborPackets_49 0
scalar SlicingScenario.node[6].appl meanDelay_49 0
scalar SlicingScenario.node[6].appl meanJitter_49 0
scalar SlicingScenario.node[6].appl meanRxPacketSize_49 0
scalar SlicingScenario.node[6].appl meanTxPacketSize_49 0
scalar SlicingScenario.node[6].appl meanRxThroughput_49 0
scalar SlicingScenario.node[6].appl meanTxThroughput_49 0
scalar SlicingScenario.node[6].appl rxTimeOfService_49 0
scalar SlicingScenario.node[6].appl txTimeOfService_49 0
scalar SlicingScenario.node[6].appl txPackets_40_49 0
scalar SlicingScenario.node[6].appl rxPackets_40_49 20
scalar SlicingScenario.node[6].appl rxNeighborPackets_40_49 286
scalar SlicingScenario.node[6].appl meanDelay_40_49 0.002074386446
scalar SlicingScenario.node[6].appl meanJitter_40_49 0.000109506537
scalar SlicingScenario.node[6].appl meanRxPacketSize_40_49 1510
scalar SlicingScenario.node[6].appl meanTxPacketSize_40_49 0
scalar SlicingScenario.node[6].appl meanRxThroughput_40_49 3178.9472019071
scalar SlicingScenario.node[6].appl meanTxThroughput_40_49 0
scalar SlicingScenario.node[6].appl rxTimeOfService_40_49 76.000003980897
scalar SlicingScenario.node[6].appl txTimeOfService_40_49 0
scalar SlicingScenario.node[6].nic.phy80211p busyTime 0.011890434782609
scalar SlicingScenario.node[6].nic.phy80211p ncollisions 0
scalar SlicingScenario.node[6].nic.phy80211p UnderSensitivityPackets 65
scalar SlicingScenario.node[6].nic.mac1609_4 ReceivedUnicastPackets_CCH 0
scalar SlicingScenario.node[6].nic.mac1609_4 ReceivedBroadcasts_CCH 0
scalar SlicingScenario.node[6].nic.mac1609_4 SentPackets_CCH 0
scalar SlicingScenario.node[6].nic.mac1609_4 SentAcknowledgements_CCH 0
scalar SlicingScenario.node[6].nic.mac1609_4 SNIRLostPackets_CCH 0
scalar SlicingScenario.node[6].nic.mac1609_4 RXTXLostPackets_CCH 0
scalar SlicingScenario.node[6].nic.mac1609_4 TotalLostPackets_CCH 0
scalar SlicingScenario.node[6].nic.mac1609_4 DroppedPacketsInMac_CCH 0
scalar SlicingScenario.node[6].nic.mac1609_4 TooLittleTime_CCH 0
scalar SlicingScenario.node[6].nic.mac1609_4 TimesIntoBackoff_CCH 0
scalar SlicingScenario.node[6].nic.mac1609_4 SlotsBackoff_CCH 0
scalar SlicingScenario.node[6].nic.mac1609_4 NumInternalContention_CCH 0
scalar SlicingScenario.node[6].nic.mac1609_4 RemainingPacketsInEDCA_CCH 0
scalar SlicingScenario.node[6].nic.mac1609_4 totalBusyTime_CCH 0
scalar SlicingScenario.node[6].nic.mac1609_4 ReceivedUnicastPackets_SCH 0
scalar SlicingScenario.node[6].nic.mac1609_4 ReceivedBroadcasts_SCH 530
scalar SlicingScenario.node[6].nic.mac1609_4 SentPackets_SCH 0
scalar SlicingScenario.node[6].nic.mac1609_4 SentAcknowledgements_SCH 0
scalar SlicingScenario.node[6].nic.mac1609_4 SNIRLostPackets_SCH 0
scalar SlicingScenario.node[6].nic.mac1609_4 RXTXLostPackets_SCH 0
scalar SlicingScenario.node[6].nic.mac1609_4 TotalLostPackets_SCH 0
scalar SlicingScenario.node[6].nic.mac1609_4 DroppedPacketsInMac_SCH 0
scalar SlicingScenario.node[6].nic.mac1609_4 TooLittleTime_SCH 0
scalar SlicingScenario.node[6].nic.mac1609_4 TimesIntoBackoff_SCH 0
scalar SlicingScenario.node[6].nic.mac1609_4 SlotsBackoff_SCH 0
scalar SlicingScenario.node[6].nic.mac1609_4 NumInternalContention_SCH 0
scalar SlicingScenario.node[6].nic.mac1609_4 RemainingPacketsInEDCA_SCH 0
scalar SlicingScenario.node[6].nic.mac1609_4 totalBusyTime_SCH 1.09392
scalar SlicingScenario.node[6].veinsmobility startTime 7
scalar SlicingScenario.node[6].veinsmobility totalTime 91
scalar SlicingScenario.node[6].veinsmobility stopTime 99
scalar SlicingScenario.node[6].veinsmobility minSpeed 10.61518267625
scalar SlicingScenario.node[6].veinsmobility maxSpeed 11.108530613608
scalar SlicingScenario.node[6].veinsmobility totalDistance 977.45546087764
scalar SlicingScenario.node[6].veinsmobility totalCO2Emission 157.58634609518
scalar SlicingScenario.node[7].appl txPackets_55 0
scalar SlicingScenario.node[7].appl rxPackets_55 0
scalar SlicingScenario.node[7].appl rxNeighborPackets_55 0
scalar SlicingScenario.node[7].appl meanDelay_55 0
scalar SlicingScenario.node[7].appl meanJitter_55 0
scalar SlicingScenario.node[7].appl meanRxPacketSize_55 0
scalar SlicingScenario.node[7].appl meanTxPacketSize_55 0
scalar SlicingScenario.node[7].appl meanRxThroughput_55 0
scalar SlicingScenario.node[7].appl meanTxThroughput_55 0
scalar SlicingScenario.node[7].appl rxTimeOfService_55 0
scalar SlicingScenario.node[7].appl txTimeOfService_55 0
scalar SlicingScenario.node[7].appl txPackets_41_55 0
scalar SlicingScenario.node[7].appl rxPackets_41_55 20
scalar SlicingScenario.node[7].appl rxNeighborPackets_41_55 215
scalar SlicingScenario.node[7].appl meanDelay_41_55 0.002066184095
scalar SlicingScenario.node[7].appl meanJitter_41_55 0.000108918019
scalar SlicingScenario.node[7].appl meanRxPacketSize_41_55 1510
scalar SlicingScenario.node[7].appl meanTxPacketSize_41_55 0
scalar SlicingScenario.node[7].appl meanRxThroughput_41_55 3178.9473659803
scalar SlicingScenario.node[7].appl meanTxThroughput_41_55 0
scalar SlicingScenario.node[7].appl rxTimeOfService_41_55 76.000000058352
scalar SlicingScenario.node[7].appl txTimeOfService_41_55 0
scalar SlicingScenario.node[7].nic.phy80211p busyTime 0.012339130434783
scalar SlicingScenario.node[7].nic.phy80211p ncollisions 0
scalar SlicingScenario.node[7].nic.phy80211p UnderSensitivityPackets 46
scalar SlicingScenario.node[7].nic.mac1609_4 ReceivedUnicastPackets_CCH 0
scalar SlicingScenario.node[7].nic.mac1609_4 ReceivedBroadcasts_CCH 0
scalar SlicingScenario.node[7].nic.mac1609_4 SentPackets_CCH 0
scalar SlicingScenario.node[7].nic.mac1609_4 SentAcknowledgements_CCH 0
scalar SlicingScenario.node[7].nic.mac1609_4 SNIRLostPackets_CCH 0
scalar SlicingScenario.node[7].nic.mac1609_4 RXTXLostPackets_CCH 0
scalar SlicingScenario.node[7].nic.mac1609_4 TotalLostPackets_CCH 0
scalar SlicingScenario.node[7].nic.mac1609_4 DroppedPacketsInMac_CCH 0
scalar SlicingScenario.node[7].nic.mac1609_4 TooLittleTime_CCH 0
scalar SlicingScenario.node[7].nic.mac1609_4 TimesIntoBackoff_CCH 0
scalar SlicingScenario.node[7].nic.mac1609_4 SlotsBackoff_CCH 0
scalar SlicingScenario.node[7].nic.mac1609_4 NumInternalContention_CCH 0
scalar SlicingScenario.node[7].nic.mac1609_4 RemainingPacketsInEDCA_CCH 0
scalar SlicingScenario.node[7].nic.mac1609_4 totalBusyTime_CCH 0
scalar SlicingScenario.node[7].nic.mac1609_4 ReceivedUnicastPackets_SCH 0
scalar SlicingScenario.node[7].nic.mac1609_4 ReceivedBroadcasts_SCH 550
scalar SlicingScenario.node[7].nic.mac1609_4 SentPackets_SCH 0
scalar SlicingScenario.node[7].nic.mac1609_4 SentAcknowledgements_SCH 0
scalar SlicingScenario.node[7].nic.mac1609_4 SNIRLostPackets_SCH 0
scalar SlicingScenario.node[7].nic.mac1609_4 RXTXLostPackets_SCH 0
scalar SlicingScenario.node[7].nic.mac1609_4 TotalLostPackets_SCH 0
scalar SlicingScenario.node[7].nic.mac1609_4 DroppedPacketsInMac_SCH 0
scalar SlicingScenario.node[7].nic.mac1609_4 TooLittleTime_SCH 0
scalar SlicingScenario.node[7].nic.mac1609_4 TimesIntoBackoff_SCH 0
scalar SlicingScenario.node[7].nic.mac1609_4 SlotsBackoff_SCH 0
scalar SlicingScenario.node[7].nic.mac1609_4 NumInternalContention_SCH 0
scalar SlicingScenario.node[7].nic.mac1609_4 RemainingPacketsInEDCA_SCH 0
scalar SlicingScenario.node[7].nic.mac1609_4 totalBusyTime_SCH 1.1352
scalar SlicingScenario.node[7].veinsmobility startTime 8
scalar SlicingScenario.node[7].veinsmobility totalTime 91
scalar SlicingScenario.node[7].veinsmobility stopTime 100
scalar SlicingScenario.node[7].veinsmobility minSpeed 10.61006455672
scalar SlicingScenario.node[7].veinsmobility maxSpeed 11.109681664282
scalar SlicingScenario.node[7].veinsmobility totalDistance 980.91506298005
scalar SlicingScenario.node[7].veinsmobility totalCO2Emission 157.92671553248
scalar SlicingScenario.node[8].appl txPackets_61 0
scalar SlicingScenario.node[8].appl rxPackets_61 0
scalar SlicingScenario.node[8].appl rxNeighborPackets_61 0
scalar SlicingScenario.node[8].appl meanDelay_61 0
scalar SlicingScenario.node[8].appl meanJitter_61 0
scalar SlicingScenario.node[8].appl meanRxPacketSize_61 0
scalar SlicingScenario.node[8].appl meanTxPacketSize_61 0
scalar SlicingScenario.node[8].appl meanRxThroughput_61 0
scalar SlicingScenario.node[8].appl meanTxThroughput_61 0
scalar SlicingScenario.node[8].appl rxTimeOfService_61 0
scalar SlicingScenario.node[8].appl txTimeOfService_61 0
scalar SlicingScenario.node[8].appl txPackets_41_61 0
scalar SlicingScenario.node[8].appl rxPackets_41_61 20
scalar SlicingScenario.node[8].appl rxNeighborPackets_41_61 215
scalar SlicingScenario.node[8].appl meanDelay_41_61 0.002070536868
scalar SlicingScenario.node[8].appl meanJitter_41_61 0.000109286748
scalar SlicingScenario.node[8].appl meanRxPacketSize_41_61 1510
scalar SlicingScenario.node[8].appl meanTxPacketSize_41_61 0
scalar SlicingScenario.node[8].appl meanRxThroughput_41_61 3178.9470284453
scalar SlicingScenario.node[8].appl meanTxThroughput_41_61 0
scalar SlicingScenario.node[8].appl rxTimeOfService_41_61 76.000008127899
scalar SlicingScenario.node[8].appl txTimeOfService_41_61 0
scalar SlicingScenario.node[8].nic.phy80211p busyTime 0.012294260869565
scalar SlicingScenario.node[8].nic.phy80211p ncollisions 0
scalar SlicingScenario.node[8].nic.phy80211p UnderSensitivityPackets 63
scalar SlicingScenario.node[8].nic.mac1609_4 ReceivedUnicastPackets_CCH 0
scalar SlicingScenario.node[8].nic.mac1609_4 ReceivedBroadcasts_CCH 0
scalar SlicingScenario.node[8].nic.mac1609_4 SentPackets_CCH 0
scalar SlicingScenario.node[8].nic.mac1609_4 SentAcknowledgements_CCH 0
scalar SlicingScenario.node[8].nic.mac1609_4 SNIRLostPackets_CCH 0
scalar SlicingScenario.node[8].nic.mac1609_4 RXTXLostPackets_CCH 0
scalar SlicingScenario.node[8].nic.mac1609_4 TotalLostPackets_CCH 0
scalar SlicingScenario.node[8].nic.mac1609_4 DroppedPacketsInMac_CCH 0
scalar SlicingScenario.node[8].nic.mac1609_4 TooLittleTime_CCH 0
scalar SlicingScenario.node[8].nic.mac1609_4 TimesIntoBackoff_CCH 0
scalar SlicingScenario.node[8].nic.mac1609_4 SlotsBackoff_CCH 0
scalar SlicingScenario.node[8].nic.mac1609_4 NumInternalContention_CCH 0
scalar SlicingScenario.node[8].nic.mac1609_4 RemainingPacketsInEDCA_CCH 0
scalar SlicingScenario.node[8].nic.mac1609_4 totalBusyTime_CCH 0
scalar SlicingScenario.node[8].nic.mac1609_4 ReceivedUnicastPackets_SCH 0
scalar SlicingScenario.node[8].nic.mac1609_4 ReceivedBroadcasts_SCH 548
scalar SlicingScenario.node[8].nic.mac1609_4 SentPackets_SCH 0
scalar SlicingScenario.node[8].nic.mac1609_4 SentAcknowledgements_SCH 0
scalar SlicingScenario.node[8].nic.mac1609_4 SNIRLostPackets_SCH 0
scalar SlicingScenario.node[8].nic.mac1609_4 RXTXLostPackets_SCH 0
scalar SlicingScenario.node[8].nic.mac1609_4 TotalLostPackets_SCH 0
scalar SlicingScenario.node[8].nic.mac1609_4 DroppedPacketsInMac_SCH 0
scalar SlicingScenario.node[8].nic.mac1609_4 TooLittleTime_SCH 0
scalar SlicingScenario.node[8].nic.mac1609_4 TimesIntoBackoff_SCH 0
scalar SlicingScenario.node[8].nic.mac1609_4 SlotsBackoff_SCH 0
scalar SlicingScenario.node[8].nic.mac1609_4 NumInternalContention_SCH 0
scalar SlicingScenario.node[8].nic.mac1609_4 RemainingPacketsInEDCA_SCH 0
scalar SlicingScenario.node[8].nic.mac1609_4 totalBusyTime_SCH 1.131072
scalar SlicingScenario.node[8].veinsmobility startTime 9
scalar SlicingScenario.node[8].veinsmobility totalTime 91
scalar SlicingScenario.node[8].veinsmobility stopTime 101
scalar SlicingScenario.node[8].veinsmobility minSpeed 10.618562086849
scalar SlicingScenario.node[8].veinsmobility maxSpeed 11.109718643259
scalar SlicingScenario.node[8].veinsmobility totalDistance 980.23088194459
scalar SlicingScenario.node[8].veinsmobility totalCO2Emission 158.47224990365
scalar SlicingScenario.node[9].appl txPackets_67 0
scalar SlicingScenario.node[9].appl rxPackets_67 0
scalar SlicingScenario.node[9].appl rxNeighborPackets_67 0
scalar SlicingScenario.node[9].appl meanDelay_67 0
scalar SlicingScenario.node[9].appl meanJitter_67 0
scalar SlicingScenario.node[9].appl meanRxPacketSize_67 0
scalar SlicingScenario.node[9].appl meanTxPacketSize_67 0
scalar SlicingScenario.node[9].appl meanRxThroughput_67 0
scalar SlicingScenario.node[9].appl meanTxThroughput_67 0
scalar SlicingScenario.node[9].appl rxTimeOfService_67 0
scalar SlicingScenario.node[9].appl txTimeOfService_67 0
scalar SlicingScenario.node[9].appl txPackets_41_67 0
scalar SlicingScenario.node[9].appl rxPackets_41_67 20
scalar SlicingScenario.node[9].appl rxNeighborPackets_41_67 223
scalar SlicingScenario.node[9].appl meanDelay_41_67 0.002072102864
scalar SlicingScenario.node[9].appl meanJitter_41_67 0.000109874201
scalar SlicingScenario.node[9].appl meanRxPacketSize_41_67 1510
scalar SlicingScenario.node[9].appl meanTxPacketSize_41_67 0
scalar SlicingScenario.node[9].appl meanRxThroughput_41_67 3178.9477370735
scalar SlicingScenario.node[9].appl meanTxThroughput_41_67 0
scalar SlicingScenario.node[9].appl rxTimeOfService_41_67 75.999991186521
scalar SlicingScenario.node[9].appl txTimeOfService_41_67 0
scalar SlicingScenario.node[9].nic.phy80211p busyTime 0.012583741935484
scalar SlicingScenario.node[9].nic.phy80211p ncollisions 0
scalar SlicingScenario.node[9].nic.phy80211p UnderSensitivityPackets 66
scalar SlicingScenario.node[9].nic.mac1609_4 ReceivedUnicastPackets_CCH 0
scalar SlicingScenario.node[9].nic.mac1609_4 ReceivedBroadcasts_CCH 0
scalar SlicingScenario.node[9].nic.mac1609_4 SentPackets_CCH 0
scalar SlicingScenario.node[9].nic.mac1609_4 SentAcknowledgements_CCH 0
scalar SlicingScenario.node[9].nic.mac1609_4 SNIRLostPackets_CCH 0
scalar SlicingScenario.node[9].nic.mac1609_4 RXTXLostPackets_CCH 0
scalar SlicingScenario.node[9].nic.mac1609_4 TotalLostPackets_CCH 0
scalar SlicingScenario.node[9].nic.mac1609_4 DroppedPacketsInMac_CCH 0
scalar SlicingScenario.node[9].nic.mac1609_4 TooLittleTime_CCH 0
scalar SlicingScenario.node[9].nic.mac1609_4 TimesIntoBackoff_CCH 0
scalar SlicingScenario.node[9].nic.mac1609_4 SlotsBackoff_CCH 0
scalar SlicingScenario.node[9].nic.mac1609_4 NumInternalContention_CCH 0
scalar SlicingScenario.node[9].nic.mac1609_4 RemainingPacketsInEDCA_CCH 0
scalar SlicingScenario.node[9].nic.mac1609_4 totalBusyTime_CCH 0
scalar SlicingScenario.node[9].nic.mac1609_4 ReceivedUnicastPackets_SCH 0
scalar SlicingScenario.node[9].nic.mac1609_4 ReceivedBroadcasts_SCH 567
scalar SlicingScenario.node[9].nic.mac1609_4 SentPackets_SCH 0
scalar SlicingScenario.node[9].nic.mac1609_4 SentAcknowledgements_SCH 0
scalar SlicingScenario.node[9].nic.mac1609_4 SNIRLostPackets_SCH 0
scalar SlicingScenario.node[9].nic.mac1609_4 RXTXLostPackets_SCH 0
scalar SlicingScenario.node[9].nic.mac1609_4 TotalLostPackets_SCH 0
scalar SlicingScenario.node[9].nic.mac1609_4 DroppedPacketsInMac_SCH 0
scalar SlicingScenario.node[9].nic.mac1609_4 TooLittleTime_SCH 0
scalar SlicingScenario.node[9].nic.mac1609_4 TimesIntoBackoff_SCH 0
scalar SlicingScenario.node[9].nic.mac1609_4 SlotsBackoff_SCH 0
scalar SlicingScenario.node[9].nic.mac1609_4 NumInternalContention_SCH 0
scalar SlicingScenario.node[9].nic.mac1609_4 RemainingPacketsInEDCA_SCH 0
scalar SlicingScenario.node[9].nic.mac1609_4 totalBusyTime_SCH 1.170288
scalar SlicingScenario.node[9].veinsmobility startTime 10
scalar SlicingScenario.node[9].veinsmobility totalTime 92
scalar SlicingScenario.node[9].veinsmobility stopTime 103
scalar SlicingScenario.node[9].veinsmobility minSpeed 10.61262034894
scalar SlicingScenario.node[9].veinsmobility maxSpeed 11.100962086711
scalar SlicingScenario.node[9].veinsmobility totalDistance 986.79348056448
scalar SlicingScenario.node[9].veinsmobility totalCO2Emission 160.16963644615
scalar SlicingScenario.node[10].appl txPackets_73 0
scalar SlicingScenario.node[10].appl rxPackets_73 0
scalar SlicingScenario.node[10].appl rxNeighborPackets_73 0
scalar SlicingScenario.node[10].appl meanDelay_73 0
scalar SlicingScenario.node[10].appl meanJitter_73 0
scalar SlicingScenario.node[10].appl meanRxPacketSize_73 0
scalar SlicingScenario.node[10].appl meanTxPacketSize_73 0
scalar SlicingScenario.node[10].appl meanRxThroughput_73 0
scalar SlicingScenario.node[10].appl meanTxThroughput_73 0
scalar SlicingScenario.node[10].appl rxTimeOfService_73 0
scalar SlicingScenario.node[10].appl txTimeOfService_73 0
scalar SlicingScenario.node[10].appl txPackets_41_73 0
scalar SlicingScenario.node[10].appl rxPackets_41_73 20
scalar SlicingScenario.node[10].appl rxNeighborPackets_41_73 234
scalar SlicingScenario.node[10].appl meanDelay_41_73 0.00207434122
scalar SlicingScenario.node[10].appl meanJitter_41_73 0.000109342503
scalar SlicingScenario.node[10].appl meanRxPacketSize_41_73 1510
scalar SlicingScenario.node[10].appl meanTxPacketSize_41_73 0
scalar SlicingScenario.node[10].appl meanRxThroughput_41_73 3178.9473594332
scalar SlicingScenario.node[10].appl meanTxThroughput_41_73 0
scalar SlicingScenario.node[10].appl rxTimeOfService_41_73 76.000000214876
scalar SlicingScenario.node[10].appl txTimeOfService_41_73 0
scalar SlicingScenario.node[10].nic.phy80211p busyTime 0.012938838709677
scalar SlicingScenario.node[10].nic.phy80211p ncollisions 0
scalar SlicingScenario.node[10].nic.phy80211p UnderSensitivityPackets 48
scalar SlicingScenario.node[10].nic.mac1609_4 ReceivedUnicastPackets_CCH 0
scalar SlicingScenario.node[10].nic.mac1609_4 ReceivedBroadcasts_CCH 0
scalar SlicingScenario.node[10].nic.mac1609_4 SentPackets_CCH 0
scalar SlicingScenario.node[10].nic.mac1609_4 SentAcknowledgements_CCH 0
scalar SlicingScenario.node[10].nic.mac1609_4 SNIRLostPackets_CCH 0
scalar SlicingScenario.node[10].nic.mac1609_4 RXTXLostPackets_CCH 0
scalar SlicingScenario.node[10].nic.mac1609_4 TotalLostPackets_CCH 0
scalar SlicingScenario.node[10].nic.mac1609_4 DroppedPacketsInMac_CCH 0
scalar SlicingScenario.node[10].nic.mac1609_4 TooLittleTime_CCH 0
scalar SlicingScenario.node[10].nic.mac1609_4 TimesIntoBackoff_CCH 0
scalar SlicingScenario.node[10].nic.mac1609_4 SlotsBackoff_CCH 0
scalar SlicingScenario.node[10].nic.mac1609_4 NumInternalContention_CCH 0
scalar SlicingScenario.node[10].nic.mac1609_4 RemainingPacketsInEDCA_CCH 0
scalar SlicingScenario.node[10].nic.mac1609_4 totalBusyTime_CCH 0
scalar SlicingScenario.node[10].nic.mac1609_4 ReceivedUnicastPackets_SCH 0
scalar SlicingScenario.node[10].nic.mac1609_4 ReceivedBroadcasts_SCH 583
scalar SlicingScenario.node[10].nic.mac1609_4 SentPackets_SCH 0
scalar SlicingScenario.node[10].nic.mac1609_4 SentAcknowledgements_SCH 0
scalar SlicingScenario.node[10].nic.mac1609_4 SNIRLostPackets_SCH 0
scalar SlicingScenario.node[10].nic.mac1609_4 RXTXLostPackets_SCH 0
scalar SlicingScenario.node[10].nic.mac1609_4 TotalLostPackets_SCH 0
scalar SlicingScenario.node[10].nic.mac1609_4 DroppedPacketsInMac_SCH 0
scalar SlicingScenario.node[10].nic.mac1609_4 TooLittleTime_SCH 0
scalar SlicingScenario.node[10].nic.mac1609_4 TimesIntoBackoff_SCH 0
scalar SlicingScenario.node[10].nic.mac1609_4 SlotsBackoff_SCH 0
scalar SlicingScenario.node[10].nic.mac1609_4 NumInternalContention_SCH 0
scalar SlicingScenario.node[10].nic.mac1609_4 RemainingPacketsInEDCA_SCH 0
scalar SlicingScenario.node[10].nic.mac1609_4 totalBusyTime_SCH 1.203312
scalar SlicingScenario.node[10].veinsmobility startTime 11
scalar SlicingScenario.node[10].veinsmobility totalTime 92
scalar SlicingScenario.node[10].veinsmobility stopTime 104
scalar SlicingScenario.node[10].veinsmobility minSpeed 8.1054896783181
scalar SlicingScenario.node[10].veinsmobility maxSpeed 11.097954253447
scalar SlicingScenario.node[10].veinsmobility totalDistance 980.6286259515
scalar SlicingScenario.node[10].veinsmobility totalCO2Emission 168.27028174214
scalar SlicingScenario.node[11].appl txPackets_79 0
scalar SlicingScenario.node[11].appl rxPackets_79 0
scalar SlicingScenario.node[11].appl rxNeighborPackets_79 0
scalar SlicingScenario.node[11].appl meanDelay_79 0
scalar SlicingScenario.node[11].appl meanJitter_79 0
scalar SlicingScenario.node[11].appl meanRxPacketSize_79 0
scalar SlicingScenario.node[11].appl meanTxPacketSize_79 0
scalar SlicingScenario.node[11].appl meanRxThroughput_79 0
scalar SlicingScenario.node[11].appl meanTxThroughput_79 0
scalar SlicingScenario.node[11].appl rxTimeOfService_79 0
scalar SlicingScenario.node[11].appl txTimeOfService_79 0
scalar SlicingScenario.node[11].appl txPackets_41_79 0
scalar SlicingScenario.node[11].appl rxPackets_41_79 19
scalar SlicingScenario.node[11].appl rxNeighborPackets_41_79 235
scalar SlicingScenario.node[11].appl meanDelay_41_79 0.002069637537
scalar SlicingScenario.node[11].appl meanJitter_41_79 0.000116062566
scalar SlicingScenario.node[11].appl meanRxPacketSize_41_79 1510
scalar SlicingScenario.node[11].appl meanTxPacketSize_41_79 0
scalar SlicingScenario.node[11].appl meanRxThroughput_41_79 3187.7779903111
scalar SlicingScenario.node[11].appl meanTxThroughput_41_79 0
scalar SlicingScenario.node[11].appl rxTimeOfService_41_79 71.999995199667
scalar SlicingScenario.node[11].appl txTimeOfService_41_79 0
scalar SlicingScenario.node[11].nic.phy80211p busyTime 0.01307947826087
scalar SlicingScenario.node[11].nic.phy80211p ncollisions 0
scalar SlicingScenario.node[11].nic.phy80211p UnderSensitivityPackets 48
scalar SlicingScenario.node[11].nic.mac1609_4 ReceivedUnicastPackets_CCH 0
scalar SlicingScenario.node[11].nic.mac1609_4 ReceivedBroadcasts_CCH 0
scalar SlicingScenario.node[11].nic.mac1609_4 SentPackets_CCH 0
scalar SlicingScenario.node[11].nic.mac1609_4 SentAcknowledgements_CCH 0
scalar SlicingScenario.node[11].nic.mac1609_4 SNIRLostPackets_CCH 0
scalar SlicingScenario.node[11].nic.mac1609_4 RXTXLostPackets_CCH 0
scalar SlicingScenario.node[11].nic.mac1609_4 TotalLostPackets_CCH 0
scalar SlicingScenario.node[11].nic.mac1609_4 DroppedPacketsInMac_CCH 0
scalar SlicingScenario.node[11].nic.mac1609_4 TooLittleTime_CCH 0
scalar SlicingScenario.node[11].nic.mac1609_4 TimesIntoBackoff_CCH 0
scalar SlicingScenario.node[11].nic.mac1609_4 SlotsBackoff_CCH 0
scalar SlicingScenario.node[11].nic.mac1609_4 NumInternalContention_CCH 0
scalar SlicingScenario.node[11].nic.mac1609_4 RemainingPacketsInEDCA_CCH 0
scalar SlicingScenario.node[11].nic.mac1609_4 totalBusyTime_CCH 0
scalar SlicingScenario.node[11].nic.mac1609_4 ReceivedUnicastPackets_SCH 0
scalar SlicingScenario.node[11].nic.mac1609_4 ReceivedBroadcasts_SCH 583
scalar SlicingScenario.node[11].nic.mac1609_4 SentPackets_SCH 0
scalar SlicingScenario.node[11].nic.mac1609_4 SentAcknowledgements_SCH 0
scalar SlicingScenario.node[11].nic.mac1609_4 SNIRLostPackets_SCH 0
scalar SlicingScenario.node[11].nic.mac1609_4 RXTXLostPackets_SCH 0
scalar SlicingScenario.node[11].nic.mac1609_4 TotalLostPackets_SCH 0
scalar SlicingScenario.node[11].nic.mac1609_4 DroppedPacketsInMac_SCH 0
scalar SlicingScenario.node[11].nic.mac1609_4 TooLittleTime_SCH 0
scalar SlicingScenario.node[11].nic.mac1609_4 TimesIntoBackoff_SCH 0
scalar SlicingScenario.node[11].nic.mac1609_4 SlotsBackoff_SCH 0
scalar SlicingScenario.node[11].nic.mac1609_4 NumInternalContention_SCH 0
scalar SlicingScenario.node[11].nic.mac1609_4 RemainingPacketsInEDCA_SCH 0
scalar SlicingScenario.node[11].nic.mac1609_4 totalBusyTime_SCH 1.203312
scalar SlicingScenario.node[11].veinsmobility startTime 12
scalar SlicingScenario.node[11].veinsmobility totalTime 91
scalar SlicingScenario.node[11].veinsmobility stopTime 104
scalar SlicingScenario.node[11].veinsmobility minSpeed 10.593388876711
scalar SlicingScenario.node[11].veinsmobility maxSpeed 11.102204416543
scalar SlicingScenario.node[11].veinsmobility totalDistance 978.29536230002
scalar SlicingScenario.node[11].veinsmobility totalCO2Emission 159.23238138941
scalar SlicingScenario.node[12].appl txPackets_85 0
scalar SlicingScenario.node[12].appl rxPackets_85 0
scalar SlicingScenario.node[12].appl rxNeighborPackets_85 0
scalar SlicingScenario.node[12].appl meanDelay_85 0
scalar SlicingScenario.node[12].appl meanJitter_85 0
scalar SlicingScenario.node[12].appl meanRxPacketSize_85 0
scalar SlicingScenario.node[12].appl meanTxPacketSize_85 0
scalar SlicingScenario.node[12].appl meanRxThroughput_85 0
scalar SlicingScenario.node[12].appl meanTxThroughput_85 0
scalar SlicingScenario.node[12].appl rxTimeOfService_85 0
scalar SlicingScenario.node[12].appl txTimeOfService_85 0
scalar SlicingScenario.node[12].appl txPackets_40_85 0
scalar SlicingScenario.node[12].appl rxPackets_40_85 19
scalar SlicingScenario.node[12].appl rxNeighborPackets_40_85 308
scalar SlicingScenario.node[12].appl meanDelay_40_85 0.002076382598
scalar SlicingScenario.node[12].appl meanJitter_40_85 0.000115519824
scalar SlicingScenario.node[12].appl meanRxPacketSize_40_85 1510
scalar SlicingScenario.node[12].appl meanTxPacketSize_40_85 0
scalar SlicingScenario.node[12].appl meanRxThroughput_40_85 3187.7777657957
scalar SlicingScenario.node[12].appl meanTxThroughput_40_85 0
scalar SlicingScenario.node[12].appl rxTimeOfService_40_85 72.00000027063
scalar SlicingScenario.node[12].appl txTimeOfService_40_85 0
scalar SlicingScenario.node[12].nic.phy80211p busyTime 0.013012173913043
scalar SlicingScenario.node[12].nic.phy80211p ncollisions 0
scalar SlicingScenario.node[12].nic.phy80211p UnderSensitivityPackets 65
scalar SlicingScenario.node[12].nic.mac1609_4 ReceivedUnicastPackets_CCH 0
scalar SlicingScenario.node[12].nic.mac1609_4 ReceivedBroadcasts_CCH 0
scalar SlicingScenario.node[12].nic.mac1609_4 SentPackets_CCH 0
scalar SlicingScenario.node[12].nic.mac1609_4 SentAcknowledgements_CCH 0
scalar SlicingScenario.node[12].nic.mac1609_4 SNIRLostPackets_CCH 0
scalar SlicingScenario.node[12].nic.mac1609_4 RXTXLostPackets_CCH 0
scalar SlicingScenario.node[12].nic.mac1609_4 TotalLostPackets_CCH 0
scalar SlicingScenario.node[12].nic.mac1609_4 DroppedPacketsInMac_CCH 0
scalar SlicingScenario.node[12].nic.mac1609_4 TooLittleTime_CCH 0
scalar SlicingScenario.node[12].nic.mac1609_4 TimesIntoBackoff_CCH 0
scalar SlicingScenario.node[12].nic.mac1609_4 SlotsBackoff_CCH 0
scalar SlicingScenario.node[12].nic.mac1609_4 NumInternalContention_CCH 0
scalar SlicingScenario.node[12].nic.mac1609_4 RemainingPacketsInEDCA_CCH 0
scalar SlicingScenario.node[12].nic.mac1609_4 totalBusyTime_CCH 0
scalar SlicingScenario.node[12].nic.mac1609_4 ReceivedUnicastPackets_SCH 0
scalar SlicingScenario.node[12].nic.mac1609_4 ReceivedBroadcasts_SCH 580
scalar SlicingScenario.node[12].nic.mac1609_4 SentPackets_SCH 0
scalar SlicingScenario.node[12].nic.mac1609_4 SentAcknowledgements_SCH 0
scalar SlicingScenario.node[12].nic.mac1609_4 SNIRLostPackets_SCH 0
scalar SlicingScenario.node[12].nic.mac1609_4 RXTXLostPackets_SCH 0
scalar SlicingScenario.node[12].nic.mac1609_4 TotalLostPackets_SCH 0
scalar SlicingScenario.node[12].nic.mac1609_4 DroppedPacketsInMac_SCH 0
scalar SlicingScenario.node[12].nic.mac1609_4 TooLittleTime_SCH 0
scalar SlicingScenario.node[12].nic.mac1609_4 TimesIntoBackoff_SCH 0
scalar SlicingScenario.node[12].nic.mac1609_4 SlotsBackoff_SCH 0
scalar SlicingScenario.node[12].nic.mac1609_4 NumInternalContention_SCH 0
scalar SlicingScenario.node[12].nic.mac1609_4 RemainingPacketsInEDCA_SCH 0
scalar SlicingScenario.node[12].nic.mac1609_4 totalBusyTime_SCH 1.19712
scalar SlicingScenario.node[12].veinsmobility startTime 13
scalar SlicingScenario.node[12].veinsmobility totalTime 91
scalar SlicingScenario.node[12].veinsmobility stopTime 105
scalar SlicingScenario.node[12].veinsmobility minSpeed 10.613011853318
scalar SlicingScenario.node[12].veinsmobility maxSpeed 11.108441130738
scalar SlicingScenario.node[12].veinsmobility totalDistance 979.33949675082
scalar SlicingScenario.node[12].veinsmobility totalCO2Emission 159.04401563894
scalar SlicingScenario.node[13].appl txPackets_91 0
scalar SlicingScenario.node[13].appl rxPackets_91 0
scalar SlicingScenario.node[13].appl rxNeighborPackets_91 0
scalar SlicingScenario.node[13].appl meanDelay_91 0
scalar SlicingScenario.node[13].appl meanJitter_91 0
scalar SlicingScenario.node[13].appl meanRxPacketSize_91 0
scalar SlicingScenario.node[13].appl meanTxPacketSize_91 0
scalar SlicingScenario.node[13].appl meanRxThroughput_91 0
scalar SlicingScenario.node[13].appl meanTxThroughput_91 0
scalar SlicingScenario.node[13].appl rxTimeOfService_91 0
scalar SlicingScenario.node[13].appl txTimeOfService_91 0
scalar SlicingScenario.node[13].appl txPackets_40_91 0
scalar SlicingScenario.node[13].appl rxPackets_40_91 19
scalar SlicingScenario.node[13].appl rxNeighborPackets_40_91 318
scalar SlicingScenario.node[13].appl meanDelay_40_91 0.004125332165
scalar SlicingScenario.node[13].appl meanJitter_40_91 0.00026348577
scalar SlicingScenario.node[13].appl meanRxPacketSize_40_91 1510
scalar SlicingScenario.node[13].appl meanTxPacketSize_40_91 0
scalar SlicingScenario.node[13].appl meanRxThroughput_40_91 3187.7812159367
scalar SlicingScenario.node[13].appl meanTxThroughput_40_91 0
scalar SlicingScenario.node[13].appl rxTimeOfService_40_91 71.999922344909
scalar SlicingScenario.node[13].appl txTimeOfService_40_91 0
scalar SlicingScenario.node[13].nic.phy80211p busyTime 0.013393565217391
scalar SlicingScenario.node[13].nic.phy80211p ncollisions 0
scalar SlicingScenario.node[13].nic.phy80211p UnderSensitivityPackets 50
scalar SlicingScenario.node[13].nic.mac1609_4 ReceivedUnicastPackets_CCH 0
scalar SlicingScenario.node[13].nic.mac1609_4 ReceivedBroadcasts_CCH 0
scalar SlicingScenario.node[13].nic.mac1609_4 SentPackets_CCH 0
scalar SlicingScenario.node[13].nic.mac1609_4 SentAcknowledgements_CCH 0
scalar SlicingScenario.node[13].nic.mac1609_4 SNIRLostPackets_CCH 0
scalar SlicingScenario.node[13].nic.mac1609_4 RXTXLostPackets_CCH 0
scalar SlicingScenario.node[13].nic.mac1609_4 TotalLostPackets_CCH 0
scalar SlicingScenario.node[13].nic.mac1609_4 DroppedPacketsInMac_CCH 0
scalar SlicingScenario.node[13].nic.mac1609_4 TooLittleTime_CCH 0
scalar SlicingScenario.node[13].nic.mac1609_4 TimesIntoBackoff_CCH 0
scalar SlicingScenario.node[13].nic.mac1609_4 SlotsBackoff_CCH 0
scalar SlicingScenario.node[13].nic.mac1609_4 NumInternalContention_CCH 0
scalar SlicingScenario.node[13].nic.mac1609_4 RemainingPacketsInEDCA_CCH 0
scalar SlicingScenario.node[13].nic.mac1609_4 totalBusyTime_CCH 0
scalar SlicingScenario.node[13].nic.mac1609_4 ReceivedUnicastPackets_SCH 0
scalar SlicingScenario.node[13].nic.mac1609_4 ReceivedBroadcasts_SCH 597
scalar SlicingScenario.node[13].nic.mac1609_4 SentPackets_SCH 0
scalar SlicingScenario.node[13].nic.mac1609_4 SentAcknowledgements_SCH 0
scalar SlicingScenario.node[13].nic.mac1609_4 SNIRLostPackets_SCH 0
scalar SlicingScenario.node[13].nic.mac1609_4 RXTXLostPackets_SCH 0
scalar SlicingScenario.node[13].nic.mac1609_4 TotalLostPackets_SCH 0
scalar SlicingScenario.node[13].nic.mac1609_4 DroppedPacketsInMac_SCH 0
scalar SlicingScenario.node[13].nic.mac1609_4 TooLittleTime_SCH 0
scalar SlicingScenario.node[13].nic.mac1609_4 TimesIntoBackoff_SCH 0
scalar SlicingScenario.node[13].nic.mac1609_4 SlotsBackoff_SCH 0
scalar SlicingScenario.node[13].nic.mac1609_4 NumInternalContention_SCH 0
scalar SlicingScenario.node[13].nic.mac1609_4 RemainingPacketsInEDCA_SCH 0
scalar SlicingScenario.node[13].nic.mac1609_4 totalBusyTime_SCH 1.232208
scalar SlicingScenario.node[13].veinsmobility startTime 14
scalar SlicingScenario.node[13].veinsmobility totalTime 91
scalar SlicingScenario.node[13].veinsmobility stopTime 106
scalar SlicingScenario.node[13].veinsmobility minSpeed 10.618527899627
scalar SlicingScenario.node[13].veinsmobility maxSpeed 11.107074243496
scalar SlicingScenario.node[13].veinsmobility totalDistance 980.37878279948
scalar SlicingScenario.node[13].veinsmobility totalCO2Emission 157.76328655049
scalar SlicingScenario.node[14].appl txPackets_97 0
scalar SlicingScenario.node[14].appl rxPackets_97 0
scalar SlicingScenario.node[14].appl rxNeighborPackets_97 0
scalar SlicingScenario.node[14].appl meanDelay_97 0
scalar SlicingScenario.node[14].appl meanJitter_97 0
scalar SlicingScenario.node[14].appl meanRxPacketSize_97 0
scalar SlicingScenario.node[14].appl meanTxPacketSize_97 0
scalar SlicingScenario.node[14].appl meanRxThroughput_97 0
scalar SlicingScenario.node[14].appl meanTxThroughput_97 0
scalar SlicingScenario.node[14].appl rxTimeOfService_97 0
scalar SlicingScenario.node[14].appl txTimeOfService_97 0
scalar SlicingScenario.node[14].appl txPackets_40_97 0
scalar SlicingScenario.node[14].appl rxPackets_40_97 18
scalar SlicingScenario.node[14].appl rxNeighborPackets_40_97 316
scalar SlicingScenario.node[14].appl meanDelay_40_97 0.003850364376
scalar SlicingScenario.node[14].appl meanJitter_40_97 0.000262474852
scalar SlicingScenario.node[14].appl meanRxPacketSize_40_97 1510
scalar SlicingScenario.node[14].appl meanTxPacketSize_40_97 0
scalar SlicingScenario.node[14].appl meanRxThroughput_40_97 3197.6494908529
scalar SlicingScenario.node[14].appl meanTxThroughput_40_97 0
scalar SlicingScenario.node[14].appl rxTimeOfService_40_97 67.999948281387
scalar SlicingScenario.node[14].appl txTimeOfService_40_97 0
scalar SlicingScenario.node[14].nic.phy80211p busyTime 0.013326260869565
scalar SlicingScenario.node[14].nic.phy80211p ncollisions 0
scalar SlicingScenario.node[14].nic.phy80211p UnderSensitivityPackets 69
scalar SlicingScenario.node[14].nic.mac1609_4 ReceivedUnicastPackets_CCH 0
scalar SlicingScenario.node[14].nic.mac1609_4 ReceivedBroadcasts_CCH 0
scalar SlicingScenario.node[14].nic.mac1609_4 SentPackets_CCH 0
scalar SlicingScenario.node[14].nic.mac1609_4 SentAcknowledgements_CCH 0
scalar SlicingScenario.node[14].nic.mac1609_4 SNIRLostPackets_CCH 0
scalar SlicingScenario.node[14].nic.mac1609_4 RXTXLostPackets_CCH 0
scalar SlicingScenario.node[14].nic.mac1609_4 TotalLostPackets_CCH 0
scalar SlicingScenario.node[14].nic.mac1609_4 DroppedPacketsInMac_CCH 0
scalar SlicingScenario.node[14].nic.mac1609_4 TooLittleTime_CCH 0
scalar SlicingScenario.node[14].nic.mac1609_4 TimesIntoBackoff_CCH 0
scalar SlicingScenario.node[14].nic.mac1609_4 SlotsBackoff_CCH 0
scalar SlicingScenario.node[14].nic.mac1609_4 NumInternalContention_CCH 0
scalar SlicingScenario.node[14].nic.mac1609_4 RemainingPacketsInEDCA_CCH 0
scalar SlicingScenario.node[14].nic.mac1609_4 totalBusyTime_CCH 0
scalar SlicingScenario.node[14].nic.mac1609_4 ReceivedUnicastPackets_SCH 0
scalar SlicingScenario.node[14].nic.mac1609_4 ReceivedBroadcasts_SCH 594
scalar SlicingScenario.node[14].nic.mac1609_4 SentPackets_SCH 0
scalar SlicingScenario.node[14].nic.mac1609_4 SentAcknowledgements_SCH 0
scalar SlicingScenario.node[14].nic.mac1609_4 SNIRLostPackets_SCH 0
scalar SlicingScenario.node[14].nic.mac1609_4 RXTXLostPackets_SCH 0
scalar SlicingScenario.node[14].nic.mac1609_4 TotalLostPackets_SCH 0
scalar SlicingScenario.node[14].nic.mac1609_4 DroppedPacketsInMac_SCH 0
scalar SlicingScenario.node[14].nic.mac1609_4 TooLittleTime_SCH 0
scalar SlicingScenario.node[14].nic.mac1609_4 TimesIntoBackoff_SCH 0
scalar SlicingScenario.node[14].nic.mac1609_4 SlotsBackoff_SCH 0
scalar SlicingScenario.node[14].nic.mac1609_4 NumInternalContention_SCH 0
scalar SlicingScenario.node[14].nic.mac1609_4 RemainingPacketsInEDCA_SCH 0
scalar SlicingScenario.node[14].nic.mac1609_4 totalBusyTime_SCH 1.226016
scalar SlicingScenario.node[14].veinsmobility startTime 15
scalar SlicingScenario.node[14].veinsmobility totalTime 91
scalar SlicingScenario.node[14].veinsmobility stopTime 107
scalar SlicingScenario.node[14].veinsmobility minSpeed 10.622221169542
scalar SlicingScenario.node[14].veinsmobility maxSpeed 11.105565565187
scalar SlicingScenario.node[14].veinsmobility totalDistance 982.5765294247
scalar SlicingScenario.node[14].veinsmobility totalCO2Emission 158.35049384226
scalar SlicingScenario.node[15].appl txPackets_103 0
scalar SlicingScenario.node[15].appl rxPackets_103 0
scalar SlicingScenario.node[15].appl rxNeighborPackets_103 0
scalar SlicingScenario.node[15].appl meanDelay_103 0
scalar SlicingScenario.node[15].appl meanJitter_103 0
scalar SlicingScenario.node[15].appl meanRxPacketSize_103 0
scalar SlicingScenario.node[15].appl meanTxPacketSize_103 0
scalar SlicingScenario.node[15].appl meanRxThroughput_103 0
scalar SlicingScenario.node[15].appl meanTxThroughput_103 0
scalar SlicingScenario.node[15].appl rxTimeOfService_103 0
scalar SlicingScenario.node[15].appl txTimeOfService_103 0
scalar SlicingScenario.node[15].appl txPackets_41_103 0
scalar SlicingScenario.node[15].appl rxPackets_41_103 18
scalar SlicingScenario.node[15].appl rxNeighborPackets_41_103 253
scalar SlicingScenario.node[15].appl meanDelay_41_103 0.002073318259
scalar SlicingScenario.node[15].appl meanJitter_41_103 0.000122262906
scalar SlicingScenario.node[15].appl meanRxPacketSize_41_103 1510
scalar SlicingScenario.node[15].appl meanTxPacketSize_41_103 0
scalar SlicingScenario.node[15].appl meanRxThroughput_41_103 3197.6468551582
scalar SlicingScenario.node[15].appl meanTxThroughput_41_103 0
scalar SlicingScenario.node[15].appl rxTimeOfService_41_103 68.000004331073
scalar SlicingScenario.node[15].appl txTimeOfService_41_103 0
scalar SlicingScenario.node[15].nic.phy80211p busyTime 0.013774956521739
scalar SlicingScenario.node[15].nic.phy80211p ncollisions 0
scalar SlicingScenario.node[15].nic.phy80211p UnderSensitivityPackets 50
scalar SlicingScenario.node[15].nic.mac1609_4 ReceivedUnicastPackets_CCH 0
scalar SlicingScenario.node[15].nic.mac1609_4 ReceivedBroadcasts_CCH 0
scalar SlicingScenario.node[15].nic.mac1609_4 SentPackets_CCH 0
scalar SlicingScenario.node[15].nic.mac1609_4 SentAcknowledgements_CCH 0
scalar SlicingScenario.node[15].nic.mac1609_4 SNIRLostPackets_CCH 0
scalar SlicingScenario.node[15].nic.mac1609_4 RXTXLostPackets_CCH 0
scalar SlicingScenario.node[15].nic.mac1609_4 TotalLostPackets_CCH 0
scalar SlicingScenario.node[15].nic.mac1609_4 DroppedPacketsInMac_CCH 0
scalar SlicingScenario.node[15].nic.mac1609_4 TooLittleTime_CCH 0
scalar SlicingScenario.node[15].nic.mac1609_4 TimesIntoBackoff_CCH 0
scalar SlicingScenario.node[15].nic.mac1609_4 SlotsBackoff_CCH 0
scalar SlicingScenario.node[15].nic.mac1609_4 NumInternalContention_CCH 0
scalar SlicingScenario.node[15].nic.mac1609_4 RemainingPacketsInEDCA_CCH 0
scalar SlicingScenario.node[15].nic.mac1609_4 totalBusyTime_CCH 0
scalar SlicingScenario.node[15].nic.mac1609_4 ReceivedUnicastPackets_SCH 0
scalar SlicingScenario.node[15].nic.mac1609_4 ReceivedBroadcasts_SCH 614
scalar SlicingScenario.node[15].nic.mac1609_4 SentPackets_SCH 0
scalar SlicingScenario.node[15].nic.mac1609_4 SentAcknowledgements_SCH 0
scalar SlicingScenario.node[15].nic.mac1609_4 SNIRLostPackets_SCH 0
scalar SlicingScenario.node[15].nic.mac1609_4 RXTXLostPackets_SCH 0
scalar SlicingScenario.node[15].nic.mac1609_4 TotalLostPackets_SCH 0
scalar SlicingScenario.node[15].nic.mac1609_4 DroppedPacketsInMac_SCH 0
scalar SlicingScenario.node[15].nic.mac1609_4 TooLittleTime_SCH 0
scalar SlicingScenario.node[15].nic.mac1609_4 TimesIntoBackoff_SCH 0
scalar SlicingScenario.node[15].nic.mac1609_4 SlotsBackoff_SCH 0
scalar SlicingScenario.node[15].nic.mac1609_4 NumInternalContention_SCH 0
scalar SlicingScenario.node[15].nic.mac1609_4 RemainingPacketsInEDCA_SCH 0
scalar SlicingScenario.node[15].nic.mac1609_4 totalBusyTime_SCH 1.267296
scalar SlicingScenario.node[15].veinsmobility startTime 16
scalar SlicingScenario.node[15].veinsmobility totalTime 91
scalar SlicingScenario.node[15].veinsmobility stopTime 108
scalar SlicingScenario.node[15].veinsmobility minSpeed 10.453283893479
scalar SlicingScenario.node[15].veinsmobility maxSpeed 11.098893920206
scalar SlicingScenario.node[15].veinsmobility totalDistance 975.73249440547
scalar SlicingScenario.node[15].veinsmobility totalCO2Emission 157.36770021365
scalar SlicingScenario.node[16].appl txPackets_109 0
scalar SlicingScenario.node[16].appl rxPackets_109 0
scalar SlicingScenario.node[16].appl rxNeighborPackets_109 0
scalar SlicingScenario.node[16].appl meanDelay_109 0
scalar SlicingScenario.node[16].appl meanJitter_109 0
scalar SlicingScenario.node[16].appl meanRxPacketSize_109 0
scalar SlicingScenario.node[16].appl meanTxPacketSize_109 0
scalar SlicingScenario.node[16].appl meanRxThroughput_109 0
scalar SlicingScenario.node[16].appl meanTxThroughput_109 0
scalar SlicingScenario.node[16].appl rxTimeOfService_109 0
scalar SlicingScenario.node[16].appl txTimeOfService_109 0
scalar SlicingScenario.node[16].appl txPackets_41_109 0
scalar SlicingScenario.node[16].appl rxPackets_41_109 18
scalar SlicingScenario.node[16].appl rxNeighborPackets_41_109 251
scalar SlicingScenario.node[16].appl meanDelay_41_109 0.002071178257
scalar SlicingScenario.node[16].appl meanJitter_41_109 0.000122954165
scalar SlicingScenario.node[16].appl meanRxPacketSize_41_109 1510
scalar SlicingScenario.node[16].appl meanTxPacketSize_41_109 0
scalar SlicingScenario.node[16].appl meanRxThroughput_41_109 3197.6472746966
scalar SlicingScenario.node[16].appl meanTxThroughput_41_109 0
scalar SlicingScenario.node[16].appl rxTimeOfService_41_109 67.999995409321
scalar SlicingScenario.node[16].appl txTimeOfService_41_109 0
scalar SlicingScenario.node[16].nic.phy80211p busyTime 0.013685217391304
scalar SlicingScenario.node[16].nic.phy80211p ncollisions 0
scalar SlicingScenario.node[16].nic.phy80211p UnderSensitivityPackets 67
scalar SlicingScenario.node[16].nic.mac1609_4 ReceivedUnicastPackets_CCH 0
scalar SlicingScenario.node[16].nic.mac1609_4 ReceivedBroadcasts_CCH 0
scalar SlicingScenario.node[16].nic.mac1609_4 SentPackets_CCH 0
scalar SlicingScenario.node[16].nic.mac1609_4 SentAcknowledgements_CCH 0
scalar SlicingScenario.node[16].nic.mac1609_4 SNIRLostPackets_CCH 0
scalar SlicingScenario.node[16].nic.mac1609_4 RXTXLostPackets_CCH 0
scalar SlicingScenario.node[16].nic.mac1609_4 TotalLostPackets_CCH 0
scalar SlicingScenario.node[16].nic.mac1609_4 DroppedPacketsInMac_CCH 0
scalar SlicingScenario.node[16].nic.mac1609_4 TooLittleTime_CCH 0
scalar SlicingScenario.node[16].nic.mac1609_4 TimesIntoBackoff_CCH 0
scalar SlicingScenario.node[16].nic.mac1609_4 SlotsBackoff_CCH 0
scalar SlicingScenario.node[16].nic.mac1609_4 NumInternalContention_CCH 0
scalar SlicingScenario.node[16].nic.mac1609_4 RemainingPacketsInEDCA_CCH 0
scalar SlicingScenario.node[16].nic.mac1609_4 totalBusyTime_CCH 0
scalar SlicingScenario.node[16].nic.mac1609_4 ReceivedUnicastPackets_SCH 0
scalar SlicingScenario.node[16].nic.mac1609_4 ReceivedBroadcasts_SCH 610
scalar SlicingScenario.node[16].nic.mac1609_4 SentPackets_SCH 0
scalar SlicingScenario.node[16].nic.mac1609_4 SentAcknowledgements_SCH 0
scalar SlicingScenario.node[16].nic.mac1609_4 SNIRLostPackets_SCH 0
scalar SlicingScenario.node[16].nic.mac1609_4 RXTXLostPackets_SCH 0
scalar SlicingScenario.node[16].nic.mac1609_4 TotalLostPackets_SCH 0
scalar SlicingScenario.node[16].nic.mac1609_4 DroppedPacketsInMac_SCH 0
scalar SlicingScenario.node[16].nic.mac1609_4 TooLittleTime_SCH 0
scalar SlicingScenario.node[16].nic.mac1609_4 TimesIntoBackoff_SCH 0
scalar SlicingScenario.node[16].nic.mac1609_4 SlotsBackoff_SCH 0
scalar SlicingScenario.node[16].nic.mac1609_4 NumInternalContention_SCH 0
scalar SlicingScenario.node[16].nic.mac1609_4 RemainingPacketsInEDCA_SCH 0
scalar SlicingScenario.node[16].nic.mac1609_4 totalBusyTime_SCH 1.25904
scalar SlicingScenario.node[16].veinsmobility startTime 17
scalar SlicingScenario.node[16].veinsmobility totalTime 91
scalar SlicingScenario.node[16].veinsmobility stopTime 109
scalar SlicingScenario.node[16].veinsmobility minSpeed 10.613910165513
scalar SlicingScenario.node[16].veinsmobility maxSpeed 11.100691079758
scalar SlicingScenario.node[16].veinsmobility totalDistance 979.72902643742
scalar SlicingScenario.node[16].veinsmobility totalCO2Emission 157.82416646108
scalar SlicingScenario.node[17].appl txPackets_115 0
scalar SlicingScenario.node[17].appl rxPackets_115 0
scalar SlicingScenario.node[17].appl rxNeighborPackets_115 0
scalar SlicingScenario.node[17].appl meanDelay_115 0
scalar SlicingScenario.node[17].appl meanJitter_115 0
scalar SlicingScenario.node[17].appl meanRxPacketSize_115 0
scalar SlicingScenario.node[17].appl meanTxPacketSize_115 0
scalar SlicingScenario.node[17].appl meanRxThroughput_115 0
scalar SlicingScenario.node[17].appl meanTxThroughput_115 0
scalar SlicingScenario.node[17].appl rxTimeOfService_115 0
scalar SlicingScenario.node[17].appl txTimeOfService_115 0
scalar SlicingScenario.node[17].appl txPackets_40_115 0
scalar SlicingScenario.node[17].appl rxPackets_40_115 18
scalar SlicingScenario.node[17].appl rxNeighborPackets_40_115 330
scalar SlicingScenario.node[17].appl meanDelay_40_115 0.003396436767
scalar SlicingScenario.node[17].appl meanJitter_40_115 0.000232600596
scalar SlicingScenario.node[17].appl meanRxPacketSize_40_115 1510
scalar SlicingScenario.node[17].appl meanTxPacketSize_40_115 0
scalar SlicingScenario.node[17].appl meanRxThroughput_40_115 3197.6458154484
scalar SlicingScenario.node[17].appl meanTxThroughput_40_115 0
scalar SlicingScenario.node[17].appl rxTimeOfService_40_115 68.000026441173
scalar SlicingScenario.node[17].appl txTimeOfService_40_115 0
scalar SlicingScenario.node[17].nic.phy80211p busyTime 0.013826580645161
scalar SlicingScenario.node[17].nic.phy80211p ncollisions 0
scalar SlicingScenario.node[17].nic.phy80211p UnderSensitivityPackets 76
scalar SlicingScenario.node[17].nic.mac1609_4 ReceivedUnicastPackets_CCH 0
scalar SlicingScenario.node[17].nic.mac1609_4 ReceivedBroadcasts_CCH 0
scalar SlicingScenario.node[17].nic.mac1609_4 SentPackets_CCH 0
scalar SlicingScenario.node[17].nic.mac1609_4 SentAcknowledgements_CCH 0
scalar SlicingScenario.node[17].nic.mac1609_4 SNIRLostPackets_CCH 0
scalar SlicingScenario.node[17].nic.mac1609_4 RXTXLostPackets_CCH 0
scalar SlicingScenario.node[17].nic.mac1609_4 TotalLostPackets_CCH 0
scalar SlicingScenario.node[17].nic.mac1609_4 DroppedPacketsInMac_CCH 0
scalar SlicingScenario.node[17].nic.mac1609_4 TooLittleTime_CCH 0
scalar SlicingScenario.node[17].nic.mac1609_4 TimesIntoBackoff_CCH 0
scalar SlicingScenario.node[17].nic.mac1609_4 SlotsBackoff_CCH 0
scalar SlicingScenario.node[17].nic.mac1609_4 NumInternalContention_CCH 0
scalar SlicingScenario.node[17].nic.mac1609_4 RemainingPacketsInEDCA_CCH 0
scalar SlicingScenario.node[17].nic.mac1609_4 totalBusyTime_CCH 0
scalar SlicingScenario.node[17].nic.mac1609_4 ReceivedUnicastPackets_SCH 0
scalar SlicingScenario.node[17].nic.mac1609_4 ReceivedBroadcasts_SCH 623
scalar SlicingScenario.node[17].nic.mac1609_4 SentPackets_SCH 0
scalar SlicingScenario.node[17].nic.mac1609_4 SentAcknowledgements_SCH 0
scalar SlicingScenario.node[17].nic.mac1609_4 SNIRLostPackets_SCH 0
scalar SlicingScenario.node[17].nic.mac1609_4 RXTXLostPackets_SCH 0
scalar SlicingScenario.node[17].nic.mac1609_4 TotalLostPackets_SCH 0
scalar SlicingScenario.node[17].nic.mac1609_4 DroppedPacketsInMac_SCH 0
scalar SlicingScenario.node[17].nic.mac1609_4 TooLittleTime_SCH 0
scalar SlicingScenario.node[17].nic.mac1609_4 TimesIntoBackoff_SCH 0
scalar SlicingScenario.node[17].nic.mac1609_4 SlotsBackoff_SCH 0
scalar SlicingScenario.node[17].nic.mac1609_4 NumInternalContention_SCH 0
scalar SlicingScenario.node[17].nic.mac1609_4 RemainingPacketsInEDCA_SCH 0
scalar SlicingScenario.node[17].nic.mac1609_4 totalBusyTime_SCH 1.285872
scalar SlicingScenario.node[17].veinsmobility startTime 18
scalar SlicingScenario.node[17].veinsmobility totalTime 92
scalar SlicingScenario.node[17].veinsmobility stopTime 111
scalar SlicingScenario.node[17].veinsmobility minSpeed 8.4417148548975
scalar SlicingScenario.node[17].veinsmobility maxSpeed 11.109651879887
scalar SlicingScenario.node[17].veinsmobility totalDistance 983.17047804866
scalar SlicingScenario.node[17].veinsmobility totalCO2Emission 166.97472040161
scalar SlicingScenario.node[18].appl txPackets_121 0
scalar SlicingScenario.node[18].appl rxPackets_121 0
scalar SlicingScenario.node[18].appl rxNeighborPackets_121 0
scalar SlicingScenario.node[18].appl meanDelay_121 0
scalar SlicingScenario.node[18].appl meanJitter_121 0
scalar SlicingScenario.node[18].appl meanRxPacketSize_121 0
scalar SlicingScenario.node[18].appl meanTxPacketSize_121 0
scalar SlicingScenario.node[18].appl meanRxThroughput_121 0
scalar SlicingScenario.node[18].appl meanTxThroughput_121 0
scalar SlicingScenario.node[18].appl rxTimeOfService_121 0
scalar SlicingScenario.node[18].appl txTimeOfService_121 0
scalar SlicingScenario.node[18].appl txPackets_40_121 0
scalar SlicingScenario.node[18].appl rxPackets_40_121 17
scalar SlicingScenario.node[18].appl rxNeighborPackets_40_121 331
scalar SlicingScenario.node[18].appl meanDelay_40_121 0.002077662149
scalar SlicingScenario.node[18].appl meanJitter_40_121 0.000130007235
scalar SlicingScenario.node[18].appl meanRxPacketSize_40_121 1510
scalar SlicingScenario.node[18].appl meanTxPacketSize_40_121 0
scalar SlicingScenario.node[18].appl meanRxThroughput_40_121 3208.7499752928
scalar SlicingScenario.node[18].appl meanTxThroughput_40_121 0
scalar SlicingScenario.node[18].appl rxTimeOfService_40_121 64.000000492796
scalar SlicingScenario.node[18].appl txTimeOfService_40_121 0
scalar SlicingScenario.node[18].nic.phy80211p busyTime 0.013976869565217
scalar SlicingScenario.node[18].nic.phy80211p ncollisions 0
scalar SlicingScenario.node[18].nic.phy80211p UnderSensitivityPackets 71
scalar SlicingScenario.node[18].nic.mac1609_4 ReceivedUnicastPackets_CCH 0
scalar SlicingScenario.node[18].nic.mac1609_4 ReceivedBroadcasts_CCH 0
scalar SlicingScenario.node[18].nic.mac1609_4 SentPackets_CCH 0
scalar SlicingScenario.node[18].nic.mac1609_4 SentAcknowledgements_CCH 0
scalar SlicingScenario.node[18].nic.mac1609_4 SNIRLostPackets_CCH 0
scalar SlicingScenario.node[18].nic.mac1609_4 RXTXLostPackets_CCH 0
scalar SlicingScenario.node[18].nic.mac1609_4 TotalLostPackets_CCH 0
scalar SlicingScenario.node[18].nic.mac1609_4 DroppedPacketsInMac_CCH 0
scalar SlicingScenario.node[18].nic.mac1609_4 TooLittleTime_CCH 0
scalar SlicingScenario.node[18].nic.mac1609_4 TimesIntoBackoff_CCH 0
scalar SlicingScenario.node[18].nic.mac1609_4 SlotsBackoff_CCH 0
scalar SlicingScenario.node[18].nic.mac1609_4 NumInternalContention_CCH 0
scalar SlicingScenario.node[18].nic.mac1609_4 RemainingPacketsInEDCA_CCH 0
scalar SlicingScenario.node[18].nic.mac1609_4 totalBusyTime_CCH 0
scalar SlicingScenario.node[18].nic.mac1609_4 ReceivedUnicastPackets_SCH 0
scalar SlicingScenario.node[18].nic.mac1609_4 ReceivedBroadcasts_SCH 623
scalar SlicingScenario.node[18].nic.mac1609_4 SentPackets_SCH 0
scalar SlicingScenario.node[18].nic.mac1609_4 SentAcknowledgements_SCH 0
scalar SlicingScenario.node[18].nic.mac1609_4 SNIRLostPackets_SCH 0
scalar SlicingScenario.node[18].nic.mac1609_4 RXTXLostPackets_SCH 0
scalar SlicingScenario.node[18].nic.mac1609_4 TotalLostPackets_SCH 0
scalar SlicingScenario.node[18].nic.mac1609_4 DroppedPacketsInMac_SCH 0
scalar SlicingScenario.node[18].nic.mac1609_4 TooLittleTime_SCH 0
scalar SlicingScenario.node[18].nic.mac1609_4 TimesIntoBackoff_SCH 0
scalar SlicingScenario.node[18].nic.mac1609_4 SlotsBackoff_SCH 0
scalar SlicingScenario.node[18].nic.mac1609_4 NumInternalContention_SCH 0
scalar SlicingScenario.node[18].nic.mac1609_4 RemainingPacketsInEDCA_SCH 0
scalar SlicingScenario.node[18].nic.mac1609_4 totalBusyTime_SCH 1.285872
scalar SlicingScenario.node[18].veinsmobility startTime 19
scalar SlicingScenario.node[18].veinsmobility totalTime 91
scalar SlicingScenario.node[18].veinsmobility stopTime 111
scalar SlicingScenario.node[18].veinsmobility minSpeed 10.618198626456
scalar SlicingScenario.node[18].veinsmobility maxSpeed 11.109964489834
scalar SlicingScenario.node[18].veinsmobility totalDistance 980.86678603246
scalar SlicingScenario.node[18].veinsmobility totalCO2Emission 159.53069747727
scalar SlicingScenario.node[19].appl txPackets_127 0
scalar SlicingScenario.node[19].appl rxPackets_127 0
scalar SlicingScenario.node[19].appl rxNeighborPackets_127 0
scalar SlicingScenario.node[19].appl meanDelay_127 0
scalar SlicingScenario.node[19].appl meanJitter_127 0
scalar SlicingScenario.node[19].appl meanRxPacketSize_127 0
scalar SlicingScenario.node[19].appl meanTxPacketSize_127 0
scalar SlicingScenario.node[19].appl meanRxThroughput_127 0
scalar SlicingScenario.node[19].appl meanTxThroughput_127 0
scalar SlicingScenario.node[19].appl rxTimeOfService_127 0
scalar SlicingScenario.node[19].appl txTimeOfService_127 0
scalar SlicingScenario.node[19].appl txPackets_40_127 0
scalar SlicingScenario.node[19].appl rxPackets_40_127 17
scalar SlicingScenario.node[19].appl rxNeighborPackets_40_127 341
scalar SlicingScenario.node[19].appl meanDelay_40_127 0.002068718903
scalar SlicingScenario.node[19].appl meanJitter_40_127 0.000129565566
scalar SlicingScenario.node[19].appl meanRxPacketSize_40_127 1510
scalar SlicingScenario.node[19].appl meanTxPacketSize_40_127 0
scalar SlicingScenario.node[19].appl meanRxThroughput_40_127 3208.7497768427
scalar SlicingScenario.node[19].appl meanTxThroughput_40_127 0
scalar SlicingScenario.node[19].appl rxTimeOfService_40_127 64.000004450976
scalar SlicingScenario.node[19].appl txTimeOfService_40_127 0
scalar SlicingScenario.node[19].nic.phy80211p busyTime 0.01429264516129
scalar SlicingScenario.node[19].nic.phy80211p ncollisions 0
scalar SlicingScenario.node[19].nic.phy80211p UnderSensitivityPackets 68
scalar SlicingScenario.node[19].nic.mac1609_4 ReceivedUnicastPackets_CCH 0
scalar SlicingScenario.node[19].nic.mac1609_4 ReceivedBroadcasts_CCH 0
scalar SlicingScenario.node[19].nic.mac1609_4 SentPackets_CCH 0
[...]
scalar SlicingScenario.rsu[0].appl txPackets_40_133 115
scalar SlicingScenario.rsu[0].appl rxPackets_40_133 0
scalar SlicingScenario.rsu[0].appl rxNeighborPackets_40_133 0
scalar SlicingScenario.rsu[0].appl meanDelay_40_133 0
scalar SlicingScenario.rsu[0].appl meanJitter_40_133 0
scalar SlicingScenario.rsu[0].appl meanRxPacketSize_40_133 0
scalar SlicingScenario.rsu[0].appl meanTxPacketSize_40_133 1510
scalar SlicingScenario.rsu[0].appl meanRxThroughput_40_133 0
scalar SlicingScenario.rsu[0].appl meanTxThroughput_40_133 3046.4912280702
scalar SlicingScenario.rsu[0].appl rxTimeOfService_40_133 0
scalar SlicingScenario.rsu[0].appl txTimeOfService_40_133 456
scalar SlicingScenario.rsu[0].appl txPackets_40_145 114
scalar SlicingScenario.rsu[0].appl rxPackets_40_145 0
scalar SlicingScenario.rsu[0].appl rxNeighborPackets_40_145 0
scalar SlicingScenario.rsu[0].appl meanDelay_40_145 0
scalar SlicingScenario.rsu[0].appl meanJitter_40_145 0
scalar SlicingScenario.rsu[0].appl meanRxPacketSize_40_145 0
scalar SlicingScenario.rsu[0].appl meanTxPacketSize_40_145 1510
scalar SlicingScenario.rsu[0].appl meanRxThroughput_40_145 0
scalar SlicingScenario.rsu[0].appl meanTxThroughput_40_145 3046.7256637168
scalar SlicingScenario.rsu[0].appl rxTimeOfService_40_145 0
scalar SlicingScenario.rsu[0].appl txTimeOfService_40_145 452
scalar SlicingScenario.rsu[0].appl txPackets_40_169 112
scalar SlicingScenario.rsu[0].appl rxPackets_40_169 0
scalar SlicingScenario.rsu[0].appl rxNeighborPackets_40_169 0
scalar SlicingScenario.rsu[0].appl meanDelay_40_169 0
scalar SlicingScenario.rsu[0].appl meanJitter_40_169 0
scalar SlicingScenario.rsu[0].appl meanRxPacketSize_40_169 0
scalar SlicingScenario.rsu[0].appl meanTxPacketSize_40_169 1510
scalar SlicingScenario.rsu[0].appl meanRxThroughput_40_169 0
scalar SlicingScenario.rsu[0].appl meanTxThroughput_40_169 3047.2072072072
scalar SlicingScenario.rsu[0].appl rxTimeOfService_40_169 0
scalar SlicingScenario.rsu[0].appl txTimeOfService_40_169 444
scalar SlicingScenario.rsu[0].appl txPackets_40_175 111
scalar SlicingScenario.rsu[0].appl rxPackets_40_175 0
scalar SlicingScenario.rsu[0].appl rxNeighborPackets_40_175 0
scalar SlicingScenario.rsu[0].appl meanDelay_40_175 0
scalar SlicingScenario.rsu[0].appl meanJitter_40_175 0
scalar SlicingScenario.rsu[0].appl meanRxPacketSize_40_175 0
scalar SlicingScenario.rsu[0].appl meanTxPacketSize_40_175 1510
scalar SlicingScenario.rsu[0].appl meanRxThroughput_40_175 0
scalar SlicingScenario.rsu[0].appl meanTxThroughput_40_175 3047.4545454545
scalar SlicingScenario.rsu[0].appl rxTimeOfService_40_175 0
scalar SlicingScenario.rsu[0].appl txTimeOfService_40_175 440
scalar SlicingScenario.rsu[0].appl txPackets_40_199 109
scalar SlicingScenario.rsu[0].appl rxPackets_40_199 0
scalar SlicingScenario.rsu[0].appl rxNeighborPackets_40_199 0
scalar SlicingScenario.rsu[0].appl meanDelay_40_199 0
scalar SlicingScenario.rsu[0].appl meanJitter_40_199 0
scalar SlicingScenario.rsu[0].appl meanRxPacketSize_40_199 0
scalar SlicingScenario.rsu[0].appl meanTxPacketSize_40_199 1510
scalar SlicingScenario.rsu[0].appl meanRxThroughput_40_199 0
scalar SlicingScenario.rsu[0].appl meanTxThroughput_40_199 3047.962962963
scalar SlicingScenario.rsu[0].appl rxTimeOfService_40_199 0
scalar SlicingScenario.rsu[0].appl txTimeOfService_40_199 432
scalar SlicingScenario.rsu[0].appl txPackets_40_211 108
scalar SlicingScenario.rsu[0].appl rxPackets_40_211 0
scalar SlicingScenario.rsu[0].appl rxNeighborPackets_40_211 0
scalar SlicingScenario.rsu[0].appl meanDelay_40_211 0
scalar SlicingScenario.rsu[0].appl meanJitter_40_211 0
scalar SlicingScenario.rsu[0].appl meanRxPacketSize_40_211 0
scalar SlicingScenario.rsu[0].appl meanTxPacketSize_40_211 1510
scalar SlicingScenario.rsu[0].appl meanRxThroughput_40_211 0
scalar SlicingScenario.rsu[0].appl meanTxThroughput_40_211 3048.2242990654
scalar SlicingScenario.rsu[0].appl rxTimeOfService_40_211 0
scalar SlicingScenario.rsu[0].appl txTimeOfService_40_211 428
scalar SlicingScenario.rsu[0].appl txPackets_40_223 107
scalar SlicingScenario.rsu[0].appl rxPackets_40_223 0
scalar SlicingScenario.rsu[0].appl rxNeighborPackets_40_223 0
scalar SlicingScenario.rsu[0].appl meanDelay_40_223 0
scalar SlicingScenario.rsu[0].appl meanJitter_40_223 0
scalar SlicingScenario.rsu[0].appl meanRxPacketSize_40_223 0
scalar SlicingScenario.rsu[0].appl meanTxPacketSize_40_223 1510
scalar SlicingScenario.rsu[0].appl meanRxThroughput_40_223 0
scalar SlicingScenario.rsu[0].appl meanTxThroughput_40_223 3048.4905660377
scalar SlicingScenario.rsu[0].appl rxTimeOfService_40_223 0
scalar SlicingScenario.rsu[0].appl txTimeOfService_40_223 424
scalar SlicingScenario.rsu[0].appl txPackets_40_247 105
scalar SlicingScenario.rsu[0].appl rxPackets_40_247 0
scalar SlicingScenario.rsu[0].appl rxNeighborPackets_40_247 0
scalar SlicingScenario.rsu[0].appl meanDelay_40_247 0
scalar SlicingScenario.rsu[0].appl meanJitter_40_247 0
scalar SlicingScenario.rsu[0].appl meanRxPacketSize_40_247 0
scalar SlicingScenario.rsu[0].appl meanTxPacketSize_40_247 1510
scalar SlicingScenario.rsu[0].appl meanRxThroughput_40_247 0
scalar SlicingScenario.rsu[0].appl meanTxThroughput_40_247 3049.0384615385
scalar SlicingScenario.rsu[0].appl rxTimeOfService_40_247 0
scalar SlicingScenario.rsu[0].appl txTimeOfService_40_247 416
scalar SlicingScenario.rsu[0].appl txPackets_41_55 121
scalar SlicingScenario.rsu[0].appl rxPackets_41_55 0
scalar SlicingScenario.rsu[0].appl rxNeighborPackets_41_55 0
scalar SlicingScenario.rsu[0].appl meanDelay_41_55 0
scalar SlicingScenario.rsu[0].appl meanJitter_41_55 0
scalar SlicingScenario.rsu[0].appl meanRxPacketSize_41_55 0
scalar SlicingScenario.rsu[0].appl meanTxPacketSize_41_55 1510
scalar SlicingScenario.rsu[0].appl meanRxThroughput_41_55 0
scalar SlicingScenario.rsu[0].appl meanTxThroughput_41_55 3045.1666666667
scalar SlicingScenario.rsu[0].appl rxTimeOfService_41_55 0
scalar SlicingScenario.rsu[0].appl txTimeOfService_41_55 480
scalar SlicingScenario.rsu[0].appl txPackets_41_61 121
scalar SlicingScenario.rsu[0].appl rxPackets_41_61 0
scalar SlicingScenario.rsu[0].appl rxNeighborPackets_41_61 0
scalar SlicingScenario.rsu[0].appl meanDelay_41_61 0
scalar SlicingScenario.rsu[0].appl meanJitter_41_61 0
scalar SlicingScenario.rsu[0].appl meanRxPacketSize_41_61 0
scalar SlicingScenario.rsu[0].appl meanTxPacketSize_41_61 1510
scalar SlicingScenario.rsu[0].appl meanRxThroughput_41_61 0
scalar SlicingScenario.rsu[0].appl meanTxThroughput_41_61 3045.1666666667
scalar SlicingScenario.rsu[0].appl rxTimeOfService_41_61 0
scalar SlicingScenario.rsu[0].appl txTimeOfService_41_61 480
scalar SlicingScenario.rsu[0].appl txPackets_41_67 120
scalar SlicingScenario.rsu[0].appl rxPackets_41_67 0
scalar SlicingScenario.rsu[0].appl rxNeighborPackets_41_67 0
scalar SlicingScenario.rsu[0].appl meanDelay_41_67 0
scalar SlicingScenario.rsu[0].appl meanJitter_41_67 0
scalar SlicingScenario.rsu[0].appl meanRxPacketSize_41_67 0
scalar SlicingScenario.rsu[0].appl meanTxPacketSize_41_67 1510
scalar SlicingScenario.rsu[0].appl meanRxThroughput_41_67 0
scalar SlicingScenario.rsu[0].appl meanTxThroughput_41_67 3045.3781512605
scalar SlicingScenario.rsu[0].appl rxTimeOfService_41_67 0
scalar SlicingScenario.rsu[0].appl txTimeOfService_41_67 476
scalar SlicingScenario.rsu[0].appl txPackets_41_73 120
scalar SlicingScenario.rsu[0].appl rxPackets_41_73 0
scalar SlicingScenario.rsu[0].appl rxNeighborPackets_41_73 0
scalar SlicingScenario.rsu[0].appl meanDelay_41_73 0
scalar SlicingScenario.rsu[0].appl meanJitter_41_73 0
scalar SlicingScenario.rsu[0].appl meanRxPacketSize_41_73 0
scalar SlicingScenario.rsu[0].appl meanTxPacketSize_41_73 1510
scalar SlicingScenario.rsu[0].appl meanRxThroughput_41_73 0
scalar SlicingScenario.rsu[0].appl meanTxThroughput_41_73 3045.3781512605
scalar SlicingScenario.rsu[0].appl rxTimeOfService_41_73 0
scalar SlicingScenario.rsu[0].appl txTimeOfService_41_73 476
scalar SlicingScenario.rsu[0].appl txPackets_41_79 119
scalar SlicingScenario.rsu[0].appl rxPackets_41_79 0
scalar SlicingScenario.rsu[0].appl rxNeighborPackets_41_79 0
scalar SlicingScenario.rsu[0].appl meanDelay_41_79 0
scalar SlicingScenario.rsu[0].appl meanJitter_41_79 0
scalar SlicingScenario.rsu[0].appl meanRxPacketSize_41_79 0
scalar SlicingScenario.rsu[0].appl meanTxPacketSize_41_79 1510
scalar SlicingScenario.rsu[0].appl meanRxThroughput_41_79 0
scalar SlicingScenario.rsu[0].appl meanTxThroughput_41_79 3045.593220339
scalar SlicingScenario.rsu[0].appl rxTimeOfService_41_79 0
scalar SlicingScenario.rsu[0].appl txTimeOfService_41_79 472
scalar SlicingScenario.rsu[0].appl txPackets_41_103 117
scalar SlicingScenario.rsu[0].appl rxPackets_41_103 0
scalar SlicingScenario.rsu[0].appl rxNeighborPackets_41_103 0
scalar SlicingScenario.rsu[0].appl meanDelay_41_103 0
scalar SlicingScenario.rsu[0].appl meanJitter_41_103 0
scalar SlicingScenario.rsu[0].appl meanRxPacketSize_41_103 0
scalar SlicingScenario.rsu[0].appl meanTxPacketSize_41_103 1510
scalar SlicingScenario.rsu[0].appl meanRxThroughput_41_103 0
scalar SlicingScenario.rsu[0].appl meanTxThroughput_41_103 3046.0344827586
scalar SlicingScenario.rsu[0].appl rxTimeOfService_41_103 0
scalar SlicingScenario.rsu[0].appl txTimeOfService_41_103 464
scalar SlicingScenario.rsu[0].appl txPackets_41_109 117
scalar SlicingScenario.rsu[0].appl rxPackets_41_109 0
scalar SlicingScenario.rsu[0].appl rxNeighborPackets_41_109 0
scalar SlicingScenario.rsu[0].appl meanDelay_41_109 0
scalar SlicingScenario.rsu[0].appl meanJitter_41_109 0
scalar SlicingScenario.rsu[0].appl meanRxPacketSize_41_109 0
scalar SlicingScenario.rsu[0].appl meanTxPacketSize_41_109 1510
scalar SlicingScenario.rsu[0].appl meanRxThroughput_41_109 0
scalar SlicingScenario.rsu[0].appl meanTxThroughput_41_109 3046.0344827586
scalar SlicingScenario.rsu[0].appl rxTimeOfService_41_109 0
scalar SlicingScenario.rsu[0].appl txTimeOfService_41_109 464
scalar SlicingScenario.rsu[0].appl txPackets_41_139 114
scalar SlicingScenario.rsu[0].appl rxPackets_41_139 0
scalar SlicingScenario.rsu[0].appl rxNeighborPackets_41_139 0
scalar SlicingScenario.rsu[0].appl meanDelay_41_139 0
scalar SlicingScenario.rsu[0].appl meanJitter_41_139 0
scalar SlicingScenario.rsu[0].appl meanRxPacketSize_41_139 0
scalar SlicingScenario.rsu[0].appl meanTxPacketSize_41_139 1510
scalar SlicingScenario.rsu[0].appl meanRxThroughput_41_139 0
scalar SlicingScenario.rsu[0].appl meanTxThroughput_41_139 3046.7256637168
scalar SlicingScenario.rsu[0].appl rxTimeOfService_41_139 0
scalar SlicingScenario.rsu[0].appl txTimeOfService_41_139 452
scalar SlicingScenario.rsu[0].appl txPackets_41_151 113
scalar SlicingScenario.rsu[0].appl rxPackets_41_151 0
scalar SlicingScenario.rsu[0].appl rxNeighborPackets_41_151 0
scalar SlicingScenario.rsu[0].appl meanDelay_41_151 0
scalar SlicingScenario.rsu[0].appl meanJitter_41_151 0
scalar SlicingScenario.rsu[0].appl meanRxPacketSize_41_151 0
scalar SlicingScenario.rsu[0].appl meanTxPacketSize_41_151 1510
scalar SlicingScenario.rsu[0].appl meanRxThroughput_41_151 0
scalar SlicingScenario.rsu[0].appl meanTxThroughput_41_151 3046.9642857143
scalar SlicingScenario.rsu[0].appl rxTimeOfService_41_151 0
scalar SlicingScenario.rsu[0].appl txTimeOfService_41_151 448
scalar SlicingScenario.rsu[0].appl txPackets_41_157 113
scalar SlicingScenario.rsu[0].appl rxPackets_41_157 0
scalar SlicingScenario.rsu[0].appl rxNeighborPackets_41_157 0
scalar SlicingScenario.rsu[0].appl meanDelay_41_157 0
scalar SlicingScenario.rsu[0].appl meanJitter_41_157 0
scalar SlicingScenario.rsu[0].appl meanRxPacketSize_41_157 0
scalar SlicingScenario.rsu[0].appl meanTxPacketSize_41_157 1510
scalar SlicingScenario.rsu[0].appl meanRxThroughput_41_157 0
scalar SlicingScenario.rsu[0].appl meanTxThroughput_41_157 3046.9642857143
scalar SlicingScenario.rsu[0].appl rxTimeOfService_41_157 0
scalar SlicingScenario.rsu[0].appl txTimeOfService_41_157 448
scalar SlicingScenario.rsu[0].appl txPackets_41_163 112
scalar SlicingScenario.rsu[0].appl rxPackets_41_163 0
scalar SlicingScenario.rsu[0].appl rxNeighborPackets_41_163 0
scalar SlicingScenario.rsu[0].appl meanDelay_41_163 0
scalar SlicingScenario.rsu[0].appl meanJitter_41_163 0
scalar SlicingScenario.rsu[0].appl meanRxPacketSize_41_163 0
scalar SlicingScenario.rsu[0].appl meanTxPacketSize_41_163 1510
scalar SlicingScenario.rsu[0].appl meanRxThroughput_41_163 0
scalar SlicingScenario.rsu[0].appl meanTxThroughput_41_163 3047.2072072072
scalar SlicingScenario.rsu[0].appl rxTimeOfService_41_163 0
scalar SlicingScenario.rsu[0].appl txTimeOfService_41_163 444
scalar SlicingScenario.rsu[0].appl txPackets_41_181 111
scalar SlicingScenario.rsu[0].appl rxPackets_41_181 0
scalar SlicingScenario.rsu[0].appl rxNeighborPackets_41_181 0
scalar SlicingScenario.rsu[0].appl meanDelay_41_181 0
scalar SlicingScenario.rsu[0].appl meanJitter_41_181 0
scalar SlicingScenario.rsu[0].appl meanRxPacketSize_41_181 0
scalar SlicingScenario.rsu[0].appl meanTxPacketSize_41_181 1510
scalar SlicingScenario.rsu[0].appl meanRxThroughput_41_181 0
scalar SlicingScenario.rsu[0].appl meanTxThroughput_41_181 3047.4545454545
scalar SlicingScenario.rsu[0].appl rxTimeOfService_41_181 0
scalar SlicingScenario.rsu[0].appl txTimeOfService_41_181 440
scalar SlicingScenario.rsu[0].appl txPackets_41_187 110
scalar SlicingScenario.rsu[0].appl rxPackets_41_187 0
scalar SlicingScenario.rsu[0].appl rxNeighborPackets_41_187 0
scalar SlicingScenario.rsu[0].appl meanDelay_41_187 0
scalar SlicingScenario.rsu[0].appl meanJitter_41_187 0
scalar SlicingScenario.rsu[0].appl meanRxPacketSize_41_187 0
scalar SlicingScenario.rsu[0].appl meanTxPacketSize_41_187 1510
scalar SlicingScenario.rsu[0].appl meanRxThroughput_41_187 0
scalar SlicingScenario.rsu[0].appl meanTxThroughput_41_187 3047.7064220183
scalar SlicingScenario.rsu[0].appl rxTimeOfService_41_187 0
scalar SlicingScenario.rsu[0].appl txTimeOfService_41_187 436
scalar SlicingScenario.rsu[0].appl txPackets_41_193 110
scalar SlicingScenario.rsu[0].appl rxPackets_41_193 0
scalar SlicingScenario.rsu[0].appl rxNeighborPackets_41_193 0
scalar SlicingScenario.rsu[0].appl meanDelay_41_193 0
scalar SlicingScenario.rsu[0].appl meanJitter_41_193 0
scalar SlicingScenario.rsu[0].appl meanRxPacketSize_41_193 0
scalar SlicingScenario.rsu[0].appl meanTxPacketSize_41_193 1510
scalar SlicingScenario.rsu[0].appl meanRxThroughput_41_193 0
scalar SlicingScenario.rsu[0].appl meanTxThroughput_41_193 3047.7064220183
scalar SlicingScenario.rsu[0].appl rxTimeOfService_41_193 0
scalar SlicingScenario.rsu[0].appl txTimeOfService_41_193 436
scalar SlicingScenario.rsu[0].appl txPackets_41_205 109
scalar SlicingScenario.rsu[0].appl rxPackets_41_205 0
scalar SlicingScenario.rsu[0].appl rxNeighborPackets_41_205 0
scalar SlicingScenario.rsu[0].appl meanDelay_41_205 0
scalar SlicingScenario.rsu[0].appl meanJitter_41_205 0
scalar SlicingScenario.rsu[0].appl meanRxPacketSize_41_205 0
scalar SlicingScenario.rsu[0].appl meanTxPacketSize_41_205 1510
scalar SlicingScenario.rsu[0].appl meanRxThroughput_41_205 0
scalar SlicingScenario.rsu[0].appl meanTxThroughput_41_205 3047.962962963
scalar SlicingScenario.rsu[0].appl rxTimeOfService_41_205 0
scalar SlicingScenario.rsu[0].appl txTimeOfService_41_205 432
scalar SlicingScenario.rsu[0].appl txPackets_41_217 108
scalar SlicingScenario.rsu[0].appl rxPackets_41_217 0
scalar SlicingScenario.rsu[0].appl rxNeighborPackets_41_217 0
scalar SlicingScenario.rsu[0].appl meanDelay_41_217 0
scalar SlicingScenario.rsu[0].appl meanJitter_41_217 0
scalar SlicingScenario.rsu[0].appl meanRxPacketSize_41_217 0
scalar SlicingScenario.rsu[0].appl meanTxPacketSize_41_217 1510
scalar SlicingScenario.rsu[0].appl meanRxThroughput_41_217 0
scalar SlicingScenario.rsu[0].appl meanTxThroughput_41_217 3048.2242990654
scalar SlicingScenario.rsu[0].appl rxTimeOfService_41_217 0
scalar SlicingScenario.rsu[0].appl txTimeOfService_41_217 428
scalar SlicingScenario.rsu[0].appl txPackets_41_229 107
scalar SlicingScenario.rsu[0].appl rxPackets_41_229 0
scalar SlicingScenario.rsu[0].appl rxNeighborPackets_41_229 0
scalar SlicingScenario.rsu[0].appl meanDelay_41_229 0
scalar SlicingScenario.rsu[0].appl meanJitter_41_229 0
scalar SlicingScenario.rsu[0].appl meanRxPacketSize_41_229 0
scalar SlicingScenario.rsu[0].appl meanTxPacketSize_41_229 1510
scalar SlicingScenario.rsu[0].appl meanRxThroughput_41_229 0
scalar SlicingScenario.rsu[0].appl meanTxThroughput_41_229 3048.4905660377
scalar SlicingScenario.rsu[0].appl rxTimeOfService_41_229 0
scalar SlicingScenario.rsu[0].appl txTimeOfService_41_229 424
scalar SlicingScenario.rsu[0].appl txPackets_41_235 106
scalar SlicingScenario.rsu[0].appl rxPackets_41_235 0
scalar SlicingScenario.rsu[0].appl rxNeighborPackets_41_235 0
scalar SlicingScenario.rsu[0].appl meanDelay_41_235 0
scalar SlicingScenario.rsu[0].appl meanJitter_41_235 0
scalar SlicingScenario.rsu[0].appl meanRxPacketSize_41_235 0
scalar SlicingScenario.rsu[0].appl meanTxPacketSize_41_235 1510
scalar SlicingScenario.rsu[0].appl meanRxThroughput_41_235 0
scalar SlicingScenario.rsu[0].appl meanTxThroughput_41_235 3048.7619047619
scalar SlicingScenario.rsu[0].appl rxTimeOfService_41_235 0
scalar SlicingScenario.rsu[0].appl txTimeOfService_41_235 420
scalar SlicingScenario.rsu[0].appl txPackets_41_241 106
scalar SlicingScenario.rsu[0].appl rxPackets_41_241 0
scalar SlicingScenario.rsu[0].appl rxNeighborPackets_41_241 0
scalar SlicingScenario.rsu[0].appl meanDelay_41_241 0
scalar SlicingScenario.rsu[0].appl meanJitter_41_241 0
scalar SlicingScenario.rsu[0].appl meanRxPacketSize_41_241 0
scalar SlicingScenario.rsu[0].appl meanTxPacketSize_41_241 1510
scalar SlicingScenario.rsu[0].appl meanRxThroughput_41_241 0
scalar SlicingScenario.rsu[0].appl meanTxThroughput_41_241 3048.7619047619
scalar SlicingScenario.rsu[0].appl rxTimeOfService_41_241 0
scalar SlicingScenario.rsu[0].appl txTimeOfService_41_241 420
scalar SlicingScenario.rsu[0].nic.phy80211p busyTime 0
scalar SlicingScenario.rsu[0].nic.phy80211p ncollisions 0
scalar SlicingScenario.rsu[0].nic.phy80211p UnderSensitivityPackets 0
scalar SlicingScenario.rsu[0].nic.mac1609_4 ReceivedUnicastPackets_CCH 0
scalar SlicingScenario.rsu[0].nic.mac1609_4 ReceivedBroadcasts_CCH 0
scalar SlicingScenario.rsu[0].nic.mac1609_4 SentPackets_CCH 0
scalar SlicingScenario.rsu[0].nic.mac1609_4 SentAcknowledgements_CCH 0
scalar SlicingScenario.rsu[0].nic.mac1609_4 SNIRLostPackets_CCH 0
scalar SlicingScenario.rsu[0].nic.mac1609_4 RXTXLostPackets_CCH 0
scalar SlicingScenario.rsu[0].nic.mac1609_4 TotalLostPackets_CCH 0
scalar SlicingScenario.rsu[0].nic.mac1609_4 DroppedPacketsInMac_CCH 0
scalar SlicingScenario.rsu[0].nic.mac1609_4 TooLittleTime_CCH 0
scalar SlicingScenario.rsu[0].nic.mac1609_4 TimesIntoBackoff_CCH 0
scalar SlicingScenario.rsu[0].nic.mac1609_4 SlotsBackoff_CCH 0
scalar SlicingScenario.rsu[0].nic.mac1609_4 NumInternalContention_CCH 0
scalar SlicingScenario.rsu[0].nic.mac1609_4 RemainingPacketsInEDCA_CCH 0
scalar SlicingScenario.rsu[0].nic.mac1609_4 totalBusyTime_CCH 0
scalar SlicingScenario.rsu[0].nic.mac1609_4 ReceivedUnicastPackets_SCH 0
scalar SlicingScenario.rsu[0].nic.mac1609_4 ReceivedBroadcasts_SCH 0
scalar SlicingScenario.rsu[0].nic.mac1609_4 SentPackets_SCH 4600
scalar SlicingScenario.rsu[0].nic.mac1609_4 SentAcknowledgements_SCH 0
scalar SlicingScenario.rsu[0].nic.mac1609_4 SNIRLostPackets_SCH 0
scalar SlicingScenario.rsu[0].nic.mac1609_4 RXTXLostPackets_SCH 0
scalar SlicingScenario.rsu[0].nic.mac1609_4 TotalLostPackets_SCH 0
scalar SlicingScenario.rsu[0].nic.mac1609_4 DroppedPacketsInMac_SCH 0
scalar SlicingScenario.rsu[0].nic.mac1609_4 TooLittleTime_SCH 2664
scalar SlicingScenario.rsu[0].nic.mac1609_4 TimesIntoBackoff_SCH 5288
scalar SlicingScenario.rsu[0].nic.mac1609_4 SlotsBackoff_SCH 15911
scalar SlicingScenario.rsu[0].nic.mac1609_4 NumInternalContention_SCH 0
scalar SlicingScenario.rsu[0].nic.mac1609_4 RemainingPacketsInEDCA_SCH 0
scalar SlicingScenario.rsu[0].nic.mac1609_4 totalBusyTime_SCH 9.499

