version 2
run General-253-20190223-14:34:21-12285
attr configname General
attr datetime 20190223-14:34:21
attr experiment General
attr inifile omnetpp.ini
attr iterationvars "$vehicles=80, $msgSizeA=1500B, $serviceMsgInterval=4s"
attr iterationvarsf vehicles=80,msgSizeA=1500B,serviceMsgInterval=4s-
attr measurement "$vehicles=80, $msgSizeA=1500B, $serviceMsgInterval=4s"
attr network com.liborio.slicing.SlicingScenario
attr processid 12285
attr repetition 3
attr replication #3
attr resultdir results
attr runnumber 253
attr seedset 3
itervar msgSizeA 1500B
itervar serviceMsgInterval 4s
itervar vehicles 80
param **.debug false
param **.coreDebug false
param *.playgroundSizeX 1200m
param *.playgroundSizeY 1200m
param *.playgroundSizeZ 50m
param *.annotations.draw true
param *.manager.updateInterval 1s
param *.manager.host "\"localhost\""
param *.manager.port 9999
param *.manager.autoShutdown true
param *.manager.launchConfig "xmldoc(\"highway-\"+string(80)+\".launchd.xml\")"
param *.connectionManager.sendDirect true
param *.connectionManager.maxInterfDist 2600m
param *.connectionManager.drawMaxIntfDist false
param *.rsu[*].applType "\"RSUApp\""
param *.rsu[*].appl.headerLength "80 bit"
param *.rsu[*].appl.sendBeacons false
param *.rsu[*].appl.dataOnSch true
param *.rsu[*].appl.beaconInterval 1s
param *.rsu[*].appl.beaconUserPriority 7
param *.rsu[*].appl.dataUserPriority 5
param *.rsu[*].appl.entMsgADataLengthBytes 1500B
param *.rsu[*].appl.entMsgAUserPriority 4
param *.rsu[*].appl.entMsgAInterval 4s
param *.rsu[*].appl.entMsgBDataLengthBytes 1500B
param *.rsu[*].appl.entMsgBUserPriority 4
param *.rsu[*].appl.entMsgBInterval 4s
param *.rsu[*].nic.mac1609_4.useServiceChannel true
param *.rsu[*].nic.mac1609_4.txPower 20mW
param *.rsu[*].nic.mac1609_4.bitrate 6Mbps
param *.rsu[*].nic.phy80211p.sensitivity -90.00dBm
param *.rsu[0].mobility.x 515.0
param *.rsu[0].mobility.y 25.0
param *.rsu[0].mobility.z 3
param *.node[*].applType "\"VehApp\""
param *.node[*].appl.headerLength "80 bit"
param *.node[*].appl.sendBeacons false
param *.node[*].appl.dataOnSch true
param *.node[*].appl.beaconInterval 1s
param *.node[*].appl.wsaInterval 1s
param *.node[*].appl.entMsgADataLengthBits 1500B
param *.node[*].appl.entMsgAUserPriority 4
param *.node[*].appl.entMsgAInterval 4s
param *.node[*].appl.entMsgBDataLengthBits 1500B
param *.node[*].appl.entMsgBUserPriority 4
param *.node[*].appl.entMsgBInterval 4s
param *.node[*].nic.mac1609_4.useServiceChannel true
param *.node[*].nic.mac1609_4.txPower 20mW
param *.node[*].nic.mac1609_4.bitrate 6Mbps
param *.node[*].nic.phy80211p.sensitivity -90.00dBm
param *.node[*].veinsmobilityType.debug true
param *.node[*].veinsmobility.x 0
param *.node[*].veinsmobility.y 0
param *.node[*].veinsmobility.z 1.895
param *.**.nic.phy80211p.useThermalNoise true
param *.**.nic.phy80211p.thermalNoise -110dBm
param *.**.nic.phy80211p.decider "xmldoc(\"config.xml\")"
param *.**.nic.phy80211p.analogueModels "xmldoc(\"config.xml\")"
param *.**.nic.phy80211p.usePropagationDelay true
param *.**.nic.phy80211p.antenna "xmldoc(\"antenna.xml\", \"/root/Antenna[@id='monopole']\")"
param *.**.nic.phy80211p.collectCollisionStatistics true
param *.**.nic.phy80211p.allowTxDuringRx false

scalar SlicingScenario.node[0].appl txPackets_13 0
scalar SlicingScenario.node[0].appl rxPackets_13 0
scalar SlicingScenario.node[0].appl rxNeighborPackets_13 0
scalar SlicingScenario.node[0].appl meanDelay_13 0
scalar SlicingScenario.node[0].appl meanJitter_13 0
scalar SlicingScenario.node[0].appl meanRxPacketSize_13 0
scalar SlicingScenario.node[0].appl meanTxPacketSize_13 0
scalar SlicingScenario.node[0].appl meanRxThroughput_13 0
scalar SlicingScenario.node[0].appl meanTxThroughput_13 0
scalar SlicingScenario.node[0].appl rxTimeOfService_13 0
scalar SlicingScenario.node[0].appl txTimeOfService_13 0
scalar SlicingScenario.node[0].appl txPackets_40_13 0
scalar SlicingScenario.node[0].appl rxPackets_40_13 21
scalar SlicingScenario.node[0].appl rxNeighborPackets_40_13 269
scalar SlicingScenario.node[0].appl meanDelay_40_13 0.002075113547
scalar SlicingScenario.node[0].appl meanJitter_40_13 0.000103932283
scalar SlicingScenario.node[0].appl meanRxPacketSize_40_13 1510
scalar SlicingScenario.node[0].appl meanTxPacketSize_40_13 0
scalar SlicingScenario.node[0].appl meanRxThroughput_40_13 3171.0000006726
scalar SlicingScenario.node[0].appl meanTxThroughput_40_13 0
scalar SlicingScenario.node[0].appl rxTimeOfService_40_13 79.999999983031
scalar SlicingScenario.node[0].appl txTimeOfService_40_13 0
scalar SlicingScenario.node[0].nic.phy80211p busyTime 0.010791130434783
scalar SlicingScenario.node[0].nic.phy80211p ncollisions 0
scalar SlicingScenario.node[0].nic.phy80211p UnderSensitivityPackets 68
scalar SlicingScenario.node[0].nic.mac1609_4 ReceivedUnicastPackets_CCH 0
scalar SlicingScenario.node[0].nic.mac1609_4 ReceivedBroadcasts_CCH 0
scalar SlicingScenario.node[0].nic.mac1609_4 SentPackets_CCH 0
scalar SlicingScenario.node[0].nic.mac1609_4 SentAcknowledgements_CCH 0
scalar SlicingScenario.node[0].nic.mac1609_4 SNIRLostPackets_CCH 0
scalar SlicingScenario.node[0].nic.mac1609_4 RXTXLostPackets_CCH 0
scalar SlicingScenario.node[0].nic.mac1609_4 TotalLostPackets_CCH 0
scalar SlicingScenario.node[0].nic.mac1609_4 DroppedPacketsInMac_CCH 0
scalar SlicingScenario.node[0].nic.mac1609_4 TooLittleTime_CCH 0
scalar SlicingScenario.node[0].nic.mac1609_4 TimesIntoBackoff_CCH 0
scalar SlicingScenario.node[0].nic.mac1609_4 SlotsBackoff_CCH 0
scalar SlicingScenario.node[0].nic.mac1609_4 NumInternalContention_CCH 0
scalar SlicingScenario.node[0].nic.mac1609_4 RemainingPacketsInEDCA_CCH 0
scalar SlicingScenario.node[0].nic.mac1609_4 totalBusyTime_CCH 0
scalar SlicingScenario.node[0].nic.mac1609_4 ReceivedUnicastPackets_SCH 0
scalar SlicingScenario.node[0].nic.mac1609_4 ReceivedBroadcasts_SCH 481
scalar SlicingScenario.node[0].nic.mac1609_4 SentPackets_SCH 0
scalar SlicingScenario.node[0].nic.mac1609_4 SentAcknowledgements_SCH 0
scalar SlicingScenario.node[0].nic.mac1609_4 SNIRLostPackets_SCH 0
scalar SlicingScenario.node[0].nic.mac1609_4 RXTXLostPackets_SCH 0
scalar SlicingScenario.node[0].nic.mac1609_4 TotalLostPackets_SCH 0
scalar SlicingScenario.node[0].nic.mac1609_4 DroppedPacketsInMac_SCH 0
scalar SlicingScenario.node[0].nic.mac1609_4 TooLittleTime_SCH 0
scalar SlicingScenario.node[0].nic.mac1609_4 TimesIntoBackoff_SCH 0
scalar SlicingScenario.node[0].nic.mac1609_4 SlotsBackoff_SCH 0
scalar SlicingScenario.node[0].nic.mac1609_4 NumInternalContention_SCH 0
scalar SlicingScenario.node[0].nic.mac1609_4 RemainingPacketsInEDCA_SCH 0
scalar SlicingScenario.node[0].nic.mac1609_4 totalBusyTime_SCH 0.992784
scalar SlicingScenario.node[0].veinsmobility startTime 1
scalar SlicingScenario.node[0].veinsmobility totalTime 91
scalar SlicingScenario.node[0].veinsmobility stopTime 93
scalar SlicingScenario.node[0].veinsmobility minSpeed 10.615011868081
scalar SlicingScenario.node[0].veinsmobility maxSpeed 11.107895731009
scalar SlicingScenario.node[0].veinsmobility totalDistance 977.65012938865
scalar SlicingScenario.node[0].veinsmobility totalCO2Emission 158.11756414351
scalar SlicingScenario.node[1].appl txPackets_19 0
scalar SlicingScenario.node[1].appl rxPackets_19 0
scalar SlicingScenario.node[1].appl rxNeighborPackets_19 0
scalar SlicingScenario.node[1].appl meanDelay_19 0
scalar SlicingScenario.node[1].appl meanJitter_19 0
scalar SlicingScenario.node[1].appl meanRxPacketSize_19 0
scalar SlicingScenario.node[1].appl meanTxPacketSize_19 0
scalar SlicingScenario.node[1].appl meanRxThroughput_19 0
scalar SlicingScenario.node[1].appl meanTxThroughput_19 0
scalar SlicingScenario.node[1].appl rxTimeOfService_19 0
scalar SlicingScenario.node[1].appl txTimeOfService_19 0
scalar SlicingScenario.node[1].appl txPackets_40_19 0
scalar SlicingScenario.node[1].appl rxPackets_40_19 21
scalar SlicingScenario.node[1].appl rxNeighborPackets_40_19 280
scalar SlicingScenario.node[1].appl meanDelay_40_19 0.003161883429
scalar SlicingScenario.node[1].appl meanJitter_40_19 0.000194219877
scalar SlicingScenario.node[1].appl meanRxPacketSize_40_19 1510
scalar SlicingScenario.node[1].appl meanTxPacketSize_40_19 0
scalar SlicingScenario.node[1].appl meanRxThroughput_40_19 3170.9999977809
scalar SlicingScenario.node[1].appl meanTxThroughput_40_19 0
scalar SlicingScenario.node[1].appl rxTimeOfService_40_19 80.000000055985
scalar SlicingScenario.node[1].appl txTimeOfService_40_19 0
scalar SlicingScenario.node[1].nic.phy80211p busyTime 0.011239826086956
scalar SlicingScenario.node[1].nic.phy80211p ncollisions 0
scalar SlicingScenario.node[1].nic.phy80211p UnderSensitivityPackets 48
scalar SlicingScenario.node[1].nic.mac1609_4 ReceivedUnicastPackets_CCH 0
scalar SlicingScenario.node[1].nic.mac1609_4 ReceivedBroadcasts_CCH 0
scalar SlicingScenario.node[1].nic.mac1609_4 SentPackets_CCH 0
scalar SlicingScenario.node[1].nic.mac1609_4 SentAcknowledgements_CCH 0
scalar SlicingScenario.node[1].nic.mac1609_4 SNIRLostPackets_CCH 0
scalar SlicingScenario.node[1].nic.mac1609_4 RXTXLostPackets_CCH 0
scalar SlicingScenario.node[1].nic.mac1609_4 TotalLostPackets_CCH 0
scalar SlicingScenario.node[1].nic.mac1609_4 DroppedPacketsInMac_CCH 0
scalar SlicingScenario.node[1].nic.mac1609_4 TooLittleTime_CCH 0
scalar SlicingScenario.node[1].nic.mac1609_4 TimesIntoBackoff_CCH 0
scalar SlicingScenario.node[1].nic.mac1609_4 SlotsBackoff_CCH 0
scalar SlicingScenario.node[1].nic.mac1609_4 NumInternalContention_CCH 0
scalar SlicingScenario.node[1].nic.mac1609_4 RemainingPacketsInEDCA_CCH 0
scalar SlicingScenario.node[1].nic.mac1609_4 totalBusyTime_CCH 0
scalar SlicingScenario.node[1].nic.mac1609_4 ReceivedUnicastPackets_SCH 0
scalar SlicingScenario.node[1].nic.mac1609_4 ReceivedBroadcasts_SCH 501
scalar SlicingScenario.node[1].nic.mac1609_4 SentPackets_SCH 0
scalar SlicingScenario.node[1].nic.mac1609_4 SentAcknowledgements_SCH 0
scalar SlicingScenario.node[1].nic.mac1609_4 SNIRLostPackets_SCH 0
scalar SlicingScenario.node[1].nic.mac1609_4 RXTXLostPackets_SCH 0
scalar SlicingScenario.node[1].nic.mac1609_4 TotalLostPackets_SCH 0
scalar SlicingScenario.node[1].nic.mac1609_4 DroppedPacketsInMac_SCH 0
scalar SlicingScenario.node[1].nic.mac1609_4 TooLittleTime_SCH 0
scalar SlicingScenario.node[1].nic.mac1609_4 TimesIntoBackoff_SCH 0
scalar SlicingScenario.node[1].nic.mac1609_4 SlotsBackoff_SCH 0
scalar SlicingScenario.node[1].nic.mac1609_4 NumInternalContention_SCH 0
scalar SlicingScenario.node[1].nic.mac1609_4 RemainingPacketsInEDCA_SCH 0
scalar SlicingScenario.node[1].nic.mac1609_4 totalBusyTime_SCH 1.034064
scalar SlicingScenario.node[1].veinsmobility startTime 2
scalar SlicingScenario.node[1].veinsmobility totalTime 91
scalar SlicingScenario.node[1].veinsmobility stopTime 94
scalar SlicingScenario.node[1].veinsmobility minSpeed 10.615664994591
scalar SlicingScenario.node[1].veinsmobility maxSpeed 11.107258512652
scalar SlicingScenario.node[1].veinsmobility totalDistance 978.32946420737
scalar SlicingScenario.node[1].veinsmobility totalCO2Emission 158.68098677017
scalar SlicingScenario.node[2].appl txPackets_25 0
scalar SlicingScenario.node[2].appl rxPackets_25 0
scalar SlicingScenario.node[2].appl rxNeighborPackets_25 0
scalar SlicingScenario.node[2].appl meanDelay_25 0
scalar SlicingScenario.node[2].appl meanJitter_25 0
scalar SlicingScenario.node[2].appl meanRxPacketSize_25 0
scalar SlicingScenario.node[2].appl meanTxPacketSize_25 0
scalar SlicingScenario.node[2].appl meanRxThroughput_25 0
scalar SlicingScenario.node[2].appl meanTxThroughput_25 0
scalar SlicingScenario.node[2].appl rxTimeOfService_25 0
scalar SlicingScenario.node[2].appl txTimeOfService_25 0
scalar SlicingScenario.node[2].appl txPackets_40_25 0
scalar SlicingScenario.node[2].appl rxPackets_40_25 20
scalar SlicingScenario.node[2].appl rxNeighborPackets_40_25 279
scalar SlicingScenario.node[2].appl meanDelay_40_25 0.003362033199
scalar SlicingScenario.node[2].appl meanJitter_40_25 0.00023586089
scalar SlicingScenario.node[2].appl meanRxPacketSize_40_25 1510
scalar SlicingScenario.node[2].appl meanTxPacketSize_40_25 0
scalar SlicingScenario.node[2].appl meanRxThroughput_40_25 3178.8640495739
scalar SlicingScenario.node[2].appl meanTxThroughput_40_25 0
scalar SlicingScenario.node[2].appl rxTimeOfService_40_25 76.001991979615
scalar SlicingScenario.node[2].appl txTimeOfService_40_25 0
scalar SlicingScenario.node[2].nic.phy80211p busyTime 0.011194956521739
scalar SlicingScenario.node[2].nic.phy80211p ncollisions 0
scalar SlicingScenario.node[2].nic.phy80211p UnderSensitivityPackets 75
scalar SlicingScenario.node[2].nic.mac1609_4 ReceivedUnicastPackets_CCH 0
scalar SlicingScenario.node[2].nic.mac1609_4 ReceivedBroadcasts_CCH 0
scalar SlicingScenario.node[2].nic.mac1609_4 SentPackets_CCH 0
scalar SlicingScenario.node[2].nic.mac1609_4 SentAcknowledgements_CCH 0
scalar SlicingScenario.node[2].nic.mac1609_4 SNIRLostPackets_CCH 0
scalar SlicingScenario.node[2].nic.mac1609_4 RXTXLostPackets_CCH 0
scalar SlicingScenario.node[2].nic.mac1609_4 TotalLostPackets_CCH 0
scalar SlicingScenario.node[2].nic.mac1609_4 DroppedPacketsInMac_CCH 0
scalar SlicingScenario.node[2].nic.mac1609_4 TooLittleTime_CCH 0
scalar SlicingScenario.node[2].nic.mac1609_4 TimesIntoBackoff_CCH 0
scalar SlicingScenario.node[2].nic.mac1609_4 SlotsBackoff_CCH 0
scalar SlicingScenario.node[2].nic.mac1609_4 NumInternalContention_CCH 0
scalar SlicingScenario.node[2].nic.mac1609_4 RemainingPacketsInEDCA_CCH 0
scalar SlicingScenario.node[2].nic.mac1609_4 totalBusyTime_CCH 0
scalar SlicingScenario.node[2].nic.mac1609_4 ReceivedUnicastPackets_SCH 0
scalar SlicingScenario.node[2].nic.mac1609_4 ReceivedBroadcasts_SCH 499
scalar SlicingScenario.node[2].nic.mac1609_4 SentPackets_SCH 0
scalar SlicingScenario.node[2].nic.mac1609_4 SentAcknowledgements_SCH 0
scalar SlicingScenario.node[2].nic.mac1609_4 SNIRLostPackets_SCH 0
scalar SlicingScenario.node[2].nic.mac1609_4 RXTXLostPackets_SCH 0
scalar SlicingScenario.node[2].nic.mac1609_4 TotalLostPackets_SCH 0
scalar SlicingScenario.node[2].nic.mac1609_4 DroppedPacketsInMac_SCH 0
scalar SlicingScenario.node[2].nic.mac1609_4 TooLittleTime_SCH 0
scalar SlicingScenario.node[2].nic.mac1609_4 TimesIntoBackoff_SCH 0
scalar SlicingScenario.node[2].nic.mac1609_4 SlotsBackoff_SCH 0
scalar SlicingScenario.node[2].nic.mac1609_4 NumInternalContention_SCH 0
scalar SlicingScenario.node[2].nic.mac1609_4 RemainingPacketsInEDCA_SCH 0
scalar SlicingScenario.node[2].nic.mac1609_4 totalBusyTime_SCH 1.029936
scalar SlicingScenario.node[2].veinsmobility startTime 3
scalar SlicingScenario.node[2].veinsmobility totalTime 91
scalar SlicingScenario.node[2].veinsmobility stopTime 95
scalar SlicingScenario.node[2].veinsmobility minSpeed 10.614856482847
scalar SlicingScenario.node[2].veinsmobility maxSpeed 11.102551822565
scalar SlicingScenario.node[2].veinsmobility totalDistance 977.61334453659
scalar SlicingScenario.node[2].veinsmobility totalCO2Emission 159.37933979258
scalar SlicingScenario.node[3].appl txPackets_31 0
scalar SlicingScenario.node[3].appl rxPackets_31 0
scalar SlicingScenario.node[3].appl rxNeighborPackets_31 0
scalar SlicingScenario.node[3].appl meanDelay_31 0
scalar SlicingScenario.node[3].appl meanJitter_31 0
scalar SlicingScenario.node[3].appl meanRxPacketSize_31 0
scalar SlicingScenario.node[3].appl meanTxPacketSize_31 0
scalar SlicingScenario.node[3].appl meanRxThroughput_31 0
scalar SlicingScenario.node[3].appl meanTxThroughput_31 0
scalar SlicingScenario.node[3].appl rxTimeOfService_31 0
scalar SlicingScenario.node[3].appl txTimeOfService_31 0
scalar SlicingScenario.node[3].appl txPackets_40_31 0
scalar SlicingScenario.node[3].appl rxPackets_40_31 21
scalar SlicingScenario.node[3].appl rxNeighborPackets_40_31 291
scalar SlicingScenario.node[3].appl meanDelay_40_31 0.002075170016
scalar SlicingScenario.node[3].appl meanJitter_40_31 0.000104850071
scalar SlicingScenario.node[3].appl meanRxPacketSize_40_31 1510
scalar SlicingScenario.node[3].appl meanTxPacketSize_40_31 0
scalar SlicingScenario.node[3].appl meanRxThroughput_40_31 3170.9998847556
scalar SlicingScenario.node[3].appl meanTxThroughput_40_31 0
scalar SlicingScenario.node[3].appl rxTimeOfService_40_31 80.000002907459
scalar SlicingScenario.node[3].appl txTimeOfService_40_31 0
scalar SlicingScenario.node[3].nic.phy80211p busyTime 0.011755826086956
scalar SlicingScenario.node[3].nic.phy80211p ncollisions 0
scalar SlicingScenario.node[3].nic.phy80211p UnderSensitivityPackets 50
scalar SlicingScenario.node[3].nic.mac1609_4 ReceivedUnicastPackets_CCH 0
scalar SlicingScenario.node[3].nic.mac1609_4 ReceivedBroadcasts_CCH 0
scalar SlicingScenario.node[3].nic.mac1609_4 SentPackets_CCH 0
scalar SlicingScenario.node[3].nic.mac1609_4 SentAcknowledgements_CCH 0
scalar SlicingScenario.node[3].nic.mac1609_4 SNIRLostPackets_CCH 0
scalar SlicingScenario.node[3].nic.mac1609_4 RXTXLostPackets_CCH 0
scalar SlicingScenario.node[3].nic.mac1609_4 TotalLostPackets_CCH 0
scalar SlicingScenario.node[3].nic.mac1609_4 DroppedPacketsInMac_CCH 0
scalar SlicingScenario.node[3].nic.mac1609_4 TooLittleTime_CCH 0
scalar SlicingScenario.node[3].nic.mac1609_4 TimesIntoBackoff_CCH 0
scalar SlicingScenario.node[3].nic.mac1609_4 SlotsBackoff_CCH 0
scalar SlicingScenario.node[3].nic.mac1609_4 NumInternalContention_CCH 0
scalar SlicingScenario.node[3].nic.mac1609_4 RemainingPacketsInEDCA_CCH 0
scalar SlicingScenario.node[3].nic.mac1609_4 totalBusyTime_CCH 0
scalar SlicingScenario.node[3].nic.mac1609_4 ReceivedUnicastPackets_SCH 0
scalar SlicingScenario.node[3].nic.mac1609_4 ReceivedBroadcasts_SCH 524
scalar SlicingScenario.node[3].nic.mac1609_4 SentPackets_SCH 0
scalar SlicingScenario.node[3].nic.mac1609_4 SentAcknowledgements_SCH 0
scalar SlicingScenario.node[3].nic.mac1609_4 SNIRLostPackets_SCH 0
scalar SlicingScenario.node[3].nic.mac1609_4 RXTXLostPackets_SCH 0
scalar SlicingScenario.node[3].nic.mac1609_4 TotalLostPackets_SCH 0
scalar SlicingScenario.node[3].nic.mac1609_4 DroppedPacketsInMac_SCH 0
scalar SlicingScenario.node[3].nic.mac1609_4 TooLittleTime_SCH 0
scalar SlicingScenario.node[3].nic.mac1609_4 TimesIntoBackoff_SCH 0
scalar SlicingScenario.node[3].nic.mac1609_4 SlotsBackoff_SCH 0
scalar SlicingScenario.node[3].nic.mac1609_4 NumInternalContention_SCH 0
scalar SlicingScenario.node[3].nic.mac1609_4 RemainingPacketsInEDCA_SCH 0
scalar SlicingScenario.node[3].nic.mac1609_4 totalBusyTime_SCH 1.081536
scalar SlicingScenario.node[3].veinsmobility startTime 4
scalar SlicingScenario.node[3].veinsmobility totalTime 91
scalar SlicingScenario.node[3].veinsmobility stopTime 96
scalar SlicingScenario.node[3].veinsmobility minSpeed 10.626562648583
scalar SlicingScenario.node[3].veinsmobility maxSpeed 11.1083033397
scalar SlicingScenario.node[3].veinsmobility totalDistance 977.61683847051
scalar SlicingScenario.node[3].veinsmobility totalCO2Emission 159.70926436296
scalar SlicingScenario.node[5].appl txPackets_43 0
scalar SlicingScenario.node[5].appl rxPackets_43 0
scalar SlicingScenario.node[5].appl rxNeighborPackets_43 0
scalar SlicingScenario.node[5].appl meanDelay_43 0
scalar SlicingScenario.node[5].appl meanJitter_43 0
scalar SlicingScenario.node[5].appl meanRxPacketSize_43 0
scalar SlicingScenario.node[5].appl meanTxPacketSize_43 0
scalar SlicingScenario.node[5].appl meanRxThroughput_43 0
scalar SlicingScenario.node[5].appl meanTxThroughput_43 0
scalar SlicingScenario.node[5].appl rxTimeOfService_43 0
scalar SlicingScenario.node[5].appl txTimeOfService_43 0
scalar SlicingScenario.node[5].appl txPackets_40_43 0
scalar SlicingScenario.node[5].appl rxPackets_40_43 21
scalar SlicingScenario.node[5].appl rxNeighborPackets_40_43 300
scalar SlicingScenario.node[5].appl meanDelay_40_43 0.002068601346
scalar SlicingScenario.node[5].appl meanJitter_40_43 0.000103673129
scalar SlicingScenario.node[5].appl meanRxPacketSize_40_43 1510
scalar SlicingScenario.node[5].appl meanTxPacketSize_40_43 0
scalar SlicingScenario.node[5].appl meanRxThroughput_40_43 3170.9998393869
scalar SlicingScenario.node[5].appl meanTxThroughput_40_43 0
scalar SlicingScenario.node[5].appl rxTimeOfService_40_43 80.00000405205
scalar SlicingScenario.node[5].appl txTimeOfService_40_43 0
scalar SlicingScenario.node[5].nic.phy80211p busyTime 0.012182086956522
scalar SlicingScenario.node[5].nic.phy80211p ncollisions 0
scalar SlicingScenario.node[5].nic.phy80211p UnderSensitivityPackets 52
scalar SlicingScenario.node[5].nic.mac1609_4 ReceivedUnicastPackets_CCH 0
scalar SlicingScenario.node[5].nic.mac1609_4 ReceivedBroadcasts_CCH 0
scalar SlicingScenario.node[5].nic.mac1609_4 SentPackets_CCH 0
scalar SlicingScenario.node[5].nic.mac1609_4 SentAcknowledgements_CCH 0
scalar SlicingScenario.node[5].nic.mac1609_4 SNIRLostPackets_CCH 0
scalar SlicingScenario.node[5].nic.mac1609_4 RXTXLostPackets_CCH 0
scalar SlicingScenario.node[5].nic.mac1609_4 TotalLostPackets_CCH 0
scalar SlicingScenario.node[5].nic.mac1609_4 DroppedPacketsInMac_CCH 0
scalar SlicingScenario.node[5].nic.mac1609_4 TooLittleTime_CCH 0
scalar SlicingScenario.node[5].nic.mac1609_4 TimesIntoBackoff_CCH 0
scalar SlicingScenario.node[5].nic.mac1609_4 SlotsBackoff_CCH 0
scalar SlicingScenario.node[5].nic.mac1609_4 NumInternalContention_CCH 0
scalar SlicingScenario.node[5].nic.mac1609_4 RemainingPacketsInEDCA_CCH 0
scalar SlicingScenario.node[5].nic.mac1609_4 totalBusyTime_CCH 0
scalar SlicingScenario.node[5].nic.mac1609_4 ReceivedUnicastPackets_SCH 0
scalar SlicingScenario.node[5].nic.mac1609_4 ReceivedBroadcasts_SCH 543
scalar SlicingScenario.node[5].nic.mac1609_4 SentPackets_SCH 0
scalar SlicingScenario.node[5].nic.mac1609_4 SentAcknowledgements_SCH 0
scalar SlicingScenario.node[5].nic.mac1609_4 SNIRLostPackets_SCH 0
scalar SlicingScenario.node[5].nic.mac1609_4 RXTXLostPackets_SCH 0
scalar SlicingScenario.node[5].nic.mac1609_4 TotalLostPackets_SCH 0
scalar SlicingScenario.node[5].nic.mac1609_4 DroppedPacketsInMac_SCH 0
scalar SlicingScenario.node[5].nic.mac1609_4 TooLittleTime_SCH 0
scalar SlicingScenario.node[5].nic.mac1609_4 TimesIntoBackoff_SCH 0
scalar SlicingScenario.node[5].nic.mac1609_4 SlotsBackoff_SCH 0
scalar SlicingScenario.node[5].nic.mac1609_4 NumInternalContention_SCH 0
scalar SlicingScenario.node[5].nic.mac1609_4 RemainingPacketsInEDCA_SCH 0
scalar SlicingScenario.node[5].nic.mac1609_4 totalBusyTime_SCH 1.120752
scalar SlicingScenario.node[5].veinsmobility startTime 6
scalar SlicingScenario.node[5].veinsmobility totalTime 91
scalar SlicingScenario.node[5].veinsmobility stopTime 98
scalar SlicingScenario.node[5].veinsmobility minSpeed 10.61535940635
scalar SlicingScenario.node[5].veinsmobility maxSpeed 11.097928027287
scalar SlicingScenario.node[5].veinsmobility totalDistance 977.77500440291
scalar SlicingScenario.node[5].veinsmobility totalCO2Emission 158.12948389963
scalar SlicingScenario.node[4].appl txPackets_37 0
scalar SlicingScenario.node[4].appl rxPackets_37 0
scalar SlicingScenario.node[4].appl rxNeighborPackets_37 0
scalar SlicingScenario.node[4].appl meanDelay_37 0
scalar SlicingScenario.node[4].appl meanJitter_37 0
scalar SlicingScenario.node[4].appl meanRxPacketSize_37 0
scalar SlicingScenario.node[4].appl meanTxPacketSize_37 0
scalar SlicingScenario.node[4].appl meanRxThroughput_37 0
scalar SlicingScenario.node[4].appl meanTxThroughput_37 0
scalar SlicingScenario.node[4].appl rxTimeOfService_37 0
scalar SlicingScenario.node[4].appl txTimeOfService_37 0
scalar SlicingScenario.node[4].appl txPackets_40_37 0
scalar SlicingScenario.node[4].appl rxPackets_40_37 21
scalar SlicingScenario.node[4].appl rxNeighborPackets_40_37 300
scalar SlicingScenario.node[4].appl meanDelay_40_37 0.002070697981
scalar SlicingScenario.node[4].appl meanJitter_40_37 0.000103709525
scalar SlicingScenario.node[4].appl meanRxPacketSize_40_37 1510
scalar SlicingScenario.node[4].appl meanTxPacketSize_40_37 0
scalar SlicingScenario.node[4].appl meanRxThroughput_40_37 3171.0000010883
scalar SlicingScenario.node[4].appl meanTxThroughput_40_37 0
scalar SlicingScenario.node[4].appl rxTimeOfService_40_37 79.999999972544
scalar SlicingScenario.node[4].appl txTimeOfService_40_37 0
scalar SlicingScenario.node[4].nic.phy80211p busyTime 0.012051096774193
scalar SlicingScenario.node[4].nic.phy80211p ncollisions 0
scalar SlicingScenario.node[4].nic.phy80211p UnderSensitivityPackets 52
scalar SlicingScenario.node[4].nic.mac1609_4 ReceivedUnicastPackets_CCH 0
scalar SlicingScenario.node[4].nic.mac1609_4 ReceivedBroadcasts_CCH 0
scalar SlicingScenario.node[4].nic.mac1609_4 SentPackets_CCH 0
scalar SlicingScenario.node[4].nic.mac1609_4 SentAcknowledgements_CCH 0
scalar SlicingScenario.node[4].nic.mac1609_4 SNIRLostPackets_CCH 0
scalar SlicingScenario.node[4].nic.mac1609_4 RXTXLostPackets_CCH 0
scalar SlicingScenario.node[4].nic.mac1609_4 TotalLostPackets_CCH 0
scalar SlicingScenario.node[4].nic.mac1609_4 DroppedPacketsInMac_CCH 0
scalar SlicingScenario.node[4].nic.mac1609_4 TooLittleTime_CCH 0
scalar SlicingScenario.node[4].nic.mac1609_4 TimesIntoBackoff_CCH 0
scalar SlicingScenario.node[4].nic.mac1609_4 SlotsBackoff_CCH 0
scalar SlicingScenario.node[4].nic.mac1609_4 NumInternalContention_CCH 0
scalar SlicingScenario.node[4].nic.mac1609_4 RemainingPacketsInEDCA_CCH 0
scalar SlicingScenario.node[4].nic.mac1609_4 totalBusyTime_CCH 0
scalar SlicingScenario.node[4].nic.mac1609_4 ReceivedUnicastPackets_SCH 0
scalar SlicingScenario.node[4].nic.mac1609_4 ReceivedBroadcasts_SCH 543
scalar SlicingScenario.node[4].nic.mac1609_4 SentPackets_SCH 0
scalar SlicingScenario.node[4].nic.mac1609_4 SentAcknowledgements_SCH 0
scalar SlicingScenario.node[4].nic.mac1609_4 SNIRLostPackets_SCH 0
scalar SlicingScenario.node[4].nic.mac1609_4 RXTXLostPackets_SCH 0
scalar SlicingScenario.node[4].nic.mac1609_4 TotalLostPackets_SCH 0
scalar SlicingScenario.node[4].nic.mac1609_4 DroppedPacketsInMac_SCH 0
scalar SlicingScenario.node[4].nic.mac1609_4 TooLittleTime_SCH 0
scalar SlicingScenario.node[4].nic.mac1609_4 TimesIntoBackoff_SCH 0
scalar SlicingScenario.node[4].nic.mac1609_4 SlotsBackoff_SCH 0
scalar SlicingScenario.node[4].nic.mac1609_4 NumInternalContention_SCH 0
scalar SlicingScenario.node[4].nic.mac1609_4 RemainingPacketsInEDCA_SCH 0
scalar SlicingScenario.node[4].nic.mac1609_4 totalBusyTime_SCH 1.120752
scalar SlicingScenario.node[4].veinsmobility startTime 5
scalar SlicingScenario.node[4].veinsmobility totalTime 92
scalar SlicingScenario.node[4].veinsmobility stopTime 98
scalar SlicingScenario.node[4].veinsmobility minSpeed 10.613309700289
scalar SlicingScenario.node[4].veinsmobility maxSpeed 11.093402719838
scalar SlicingScenario.node[4].veinsmobility totalDistance 985.97094012391
scalar SlicingScenario.node[4].veinsmobility totalCO2Emission 158.58805761931
scalar SlicingScenario.node[6].appl txPackets_49 0
scalar SlicingScenario.node[6].appl rxPackets_49 0
scalar SlicingScenario.node[6].appl rxNeighborPackets_49 0
scalar SlicingScenario.node[6].appl meanDelay_49 0
scalar SlicingScenario.node[6].appl meanJitter_49 0
scalar SlicingScenario.node[6].appl meanRxPacketSize_49 0
scalar SlicingScenario.node[6].appl meanTxPacketSize_49 0
scalar SlicingScenario.node[6].appl meanRxThroughput_49 0
scalar SlicingScenario.node[6].appl meanTxThroughput_49 0
scalar SlicingScenario.node[6].appl rxTimeOfService_49 0
scalar SlicingScenario.node[6].appl txTimeOfService_49 0
scalar SlicingScenario.node[6].appl txPackets_40_49 0
scalar SlicingScenario.node[6].appl rxPackets_40_49 21
scalar SlicingScenario.node[6].appl rxNeighborPackets_40_49 310
scalar SlicingScenario.node[6].appl meanDelay_40_49 0.002072896109
scalar SlicingScenario.node[6].appl meanJitter_40_49 0.000103812986
scalar SlicingScenario.node[6].appl meanRxPacketSize_40_49 1510
scalar SlicingScenario.node[6].appl meanTxPacketSize_40_49 0
scalar SlicingScenario.node[6].appl meanRxThroughput_40_49 3170.9999953139
scalar SlicingScenario.node[6].appl meanTxThroughput_40_49 0
scalar SlicingScenario.node[6].appl rxTimeOfService_40_49 80.000000118223
scalar SlicingScenario.node[6].appl txTimeOfService_40_49 0
scalar SlicingScenario.node[6].nic.phy80211p busyTime 0.012698086956522
scalar SlicingScenario.node[6].nic.phy80211p ncollisions 0
scalar SlicingScenario.node[6].nic.phy80211p UnderSensitivityPackets 54
scalar SlicingScenario.node[6].nic.mac1609_4 ReceivedUnicastPackets_CCH 0
scalar SlicingScenario.node[6].nic.mac1609_4 ReceivedBroadcasts_CCH 0
scalar SlicingScenario.node[6].nic.mac1609_4 SentPackets_CCH 0
scalar SlicingScenario.node[6].nic.mac1609_4 SentAcknowledgements_CCH 0
scalar SlicingScenario.node[6].nic.mac1609_4 SNIRLostPackets_CCH 0
scalar SlicingScenario.node[6].nic.mac1609_4 RXTXLostPackets_CCH 0
scalar SlicingScenario.node[6].nic.mac1609_4 TotalLostPackets_CCH 0
scalar SlicingScenario.node[6].nic.mac1609_4 DroppedPacketsInMac_CCH 0
scalar SlicingScenario.node[6].nic.mac1609_4 TooLittleTime_CCH 0
scalar SlicingScenario.node[6].nic.mac1609_4 TimesIntoBackoff_CCH 0
scalar SlicingScenario.node[6].nic.mac1609_4 SlotsBackoff_CCH 0
scalar SlicingScenario.node[6].nic.mac1609_4 NumInternalContention_CCH 0
scalar SlicingScenario.node[6].nic.mac1609_4 RemainingPacketsInEDCA_CCH 0
scalar SlicingScenario.node[6].nic.mac1609_4 totalBusyTime_CCH 0
scalar SlicingScenario.node[6].nic.mac1609_4 ReceivedUnicastPackets_SCH 0
scalar SlicingScenario.node[6].nic.mac1609_4 ReceivedBroadcasts_SCH 566
scalar SlicingScenario.node[6].nic.mac1609_4 SentPackets_SCH 0
scalar SlicingScenario.node[6].nic.mac1609_4 SentAcknowledgements_SCH 0
scalar SlicingScenario.node[6].nic.mac1609_4 SNIRLostPackets_SCH 0
scalar SlicingScenario.node[6].nic.mac1609_4 RXTXLostPackets_SCH 0
scalar SlicingScenario.node[6].nic.mac1609_4 TotalLostPackets_SCH 0
scalar SlicingScenario.node[6].nic.mac1609_4 DroppedPacketsInMac_SCH 0
scalar SlicingScenario.node[6].nic.mac1609_4 TooLittleTime_SCH 0
scalar SlicingScenario.node[6].nic.mac1609_4 TimesIntoBackoff_SCH 0
scalar SlicingScenario.node[6].nic.mac1609_4 SlotsBackoff_SCH 0
scalar SlicingScenario.node[6].nic.mac1609_4 NumInternalContention_SCH 0
scalar SlicingScenario.node[6].nic.mac1609_4 RemainingPacketsInEDCA_SCH 0
scalar SlicingScenario.node[6].nic.mac1609_4 totalBusyTime_SCH 1.168224
scalar SlicingScenario.node[6].veinsmobility startTime 7
scalar SlicingScenario.node[6].veinsmobility totalTime 91
scalar SlicingScenario.node[6].veinsmobility stopTime 99
scalar SlicingScenario.node[6].veinsmobility minSpeed 10.610042079599
scalar SlicingScenario.node[6].veinsmobility maxSpeed 11.10764958641
scalar SlicingScenario.node[6].veinsmobility totalDistance 976.38948074964
scalar SlicingScenario.node[6].veinsmobility totalCO2Emission 159.28831276785
scalar SlicingScenario.node[7].appl txPackets_55 0
scalar SlicingScenario.node[7].appl rxPackets_55 0
scalar SlicingScenario.node[7].appl rxNeighborPackets_55 0
scalar SlicingScenario.node[7].appl meanDelay_55 0
scalar SlicingScenario.node[7].appl meanJitter_55 0
scalar SlicingScenario.node[7].appl meanRxPacketSize_55 0
scalar SlicingScenario.node[7].appl meanTxPacketSize_55 0
scalar SlicingScenario.node[7].appl meanRxThroughput_55 0
scalar SlicingScenario.node[7].appl meanTxThroughput_55 0
scalar SlicingScenario.node[7].appl rxTimeOfService_55 0
scalar SlicingScenario.node[7].appl txTimeOfService_55 0
scalar SlicingScenario.node[7].appl txPackets_41_55 0
scalar SlicingScenario.node[7].appl rxPackets_41_55 20
scalar SlicingScenario.node[7].appl rxNeighborPackets_41_55 215
scalar SlicingScenario.node[7].appl meanDelay_41_55 0.002073046041
scalar SlicingScenario.node[7].appl meanJitter_41_55 0.00010927769
scalar SlicingScenario.node[7].appl meanRxPacketSize_41_55 1510
scalar SlicingScenario.node[7].appl meanTxPacketSize_41_55 0
scalar SlicingScenario.node[7].appl meanRxThroughput_41_55 3178.9473662637
scalar SlicingScenario.node[7].appl meanTxThroughput_41_55 0
scalar SlicingScenario.node[7].appl rxTimeOfService_41_55 76.000000051576
scalar SlicingScenario.node[7].appl txTimeOfService_41_55 0
scalar SlicingScenario.node[7].nic.phy80211p busyTime 0.012698086956522
scalar SlicingScenario.node[7].nic.phy80211p ncollisions 0
scalar SlicingScenario.node[7].nic.phy80211p UnderSensitivityPackets 54
scalar SlicingScenario.node[7].nic.mac1609_4 ReceivedUnicastPackets_CCH 0
scalar SlicingScenario.node[7].nic.mac1609_4 ReceivedBroadcasts_CCH 0
scalar SlicingScenario.node[7].nic.mac1609_4 SentPackets_CCH 0
scalar SlicingScenario.node[7].nic.mac1609_4 SentAcknowledgements_CCH 0
scalar SlicingScenario.node[7].nic.mac1609_4 SNIRLostPackets_CCH 0
scalar SlicingScenario.node[7].nic.mac1609_4 RXTXLostPackets_CCH 0
scalar SlicingScenario.node[7].nic.mac1609_4 TotalLostPackets_CCH 0
scalar SlicingScenario.node[7].nic.mac1609_4 DroppedPacketsInMac_CCH 0
scalar SlicingScenario.node[7].nic.mac1609_4 TooLittleTime_CCH 0
scalar SlicingScenario.node[7].nic.mac1609_4 TimesIntoBackoff_CCH 0
scalar SlicingScenario.node[7].nic.mac1609_4 SlotsBackoff_CCH 0
scalar SlicingScenario.node[7].nic.mac1609_4 NumInternalContention_CCH 0
scalar SlicingScenario.node[7].nic.mac1609_4 RemainingPacketsInEDCA_CCH 0
scalar SlicingScenario.node[7].nic.mac1609_4 totalBusyTime_CCH 0
scalar SlicingScenario.node[7].nic.mac1609_4 ReceivedUnicastPackets_SCH 0
scalar SlicingScenario.node[7].nic.mac1609_4 ReceivedBroadcasts_SCH 566
scalar SlicingScenario.node[7].nic.mac1609_4 SentPackets_SCH 0
scalar SlicingScenario.node[7].nic.mac1609_4 SentAcknowledgements_SCH 0
scalar SlicingScenario.node[7].nic.mac1609_4 SNIRLostPackets_SCH 0
scalar SlicingScenario.node[7].nic.mac1609_4 RXTXLostPackets_SCH 0
scalar SlicingScenario.node[7].nic.mac1609_4 TotalLostPackets_SCH 0
scalar SlicingScenario.node[7].nic.mac1609_4 DroppedPacketsInMac_SCH 0
scalar SlicingScenario.node[7].nic.mac1609_4 TooLittleTime_SCH 0
scalar SlicingScenario.node[7].nic.mac1609_4 TimesIntoBackoff_SCH 0
scalar SlicingScenario.node[7].nic.mac1609_4 SlotsBackoff_SCH 0
scalar SlicingScenario.node[7].nic.mac1609_4 NumInternalContention_SCH 0
scalar SlicingScenario.node[7].nic.mac1609_4 RemainingPacketsInEDCA_SCH 0
scalar SlicingScenario.node[7].nic.mac1609_4 totalBusyTime_SCH 1.168224
scalar SlicingScenario.node[7].veinsmobility startTime 8
scalar SlicingScenario.node[7].veinsmobility totalTime 91
scalar SlicingScenario.node[7].veinsmobility stopTime 100
scalar SlicingScenario.node[7].veinsmobility minSpeed 10.621087889317
scalar SlicingScenario.node[7].veinsmobility maxSpeed 11.108398481752
scalar SlicingScenario.node[7].veinsmobility totalDistance 977.74512940014
scalar SlicingScenario.node[7].veinsmobility totalCO2Emission 158.22628414207
scalar SlicingScenario.node[8].appl txPackets_61 0
scalar SlicingScenario.node[8].appl rxPackets_61 0
scalar SlicingScenario.node[8].appl rxNeighborPackets_61 0
scalar SlicingScenario.node[8].appl meanDelay_61 0
scalar SlicingScenario.node[8].appl meanJitter_61 0
scalar SlicingScenario.node[8].appl meanRxPacketSize_61 0
scalar SlicingScenario.node[8].appl meanTxPacketSize_61 0
scalar SlicingScenario.node[8].appl meanRxThroughput_61 0
scalar SlicingScenario.node[8].appl meanTxThroughput_61 0
scalar SlicingScenario.node[8].appl rxTimeOfService_61 0
scalar SlicingScenario.node[8].appl txTimeOfService_61 0
scalar SlicingScenario.node[8].appl txPackets_41_61 0
scalar SlicingScenario.node[8].appl rxPackets_41_61 20
scalar SlicingScenario.node[8].appl rxNeighborPackets_41_61 215
scalar SlicingScenario.node[8].appl meanDelay_41_61 0.002072693497
scalar SlicingScenario.node[8].appl meanJitter_41_61 0.00011004049
scalar SlicingScenario.node[8].appl meanRxPacketSize_41_61 1510
scalar SlicingScenario.node[8].appl meanTxPacketSize_41_61 0
scalar SlicingScenario.node[8].appl meanRxThroughput_41_61 3178.9477395157
scalar SlicingScenario.node[8].appl meanTxThroughput_41_61 0
scalar SlicingScenario.node[8].appl rxTimeOfService_41_61 75.999991128136
scalar SlicingScenario.node[8].appl txTimeOfService_41_61 0
scalar SlicingScenario.node[8].nic.phy80211p busyTime 0.012630782608696
scalar SlicingScenario.node[8].nic.phy80211p ncollisions 0
scalar SlicingScenario.node[8].nic.phy80211p UnderSensitivityPackets 78
scalar SlicingScenario.node[8].nic.mac1609_4 ReceivedUnicastPackets_CCH 0
scalar SlicingScenario.node[8].nic.mac1609_4 ReceivedBroadcasts_CCH 0
scalar SlicingScenario.node[8].nic.mac1609_4 SentPackets_CCH 0
scalar SlicingScenario.node[8].nic.mac1609_4 SentAcknowledgements_CCH 0
scalar SlicingScenario.node[8].nic.mac1609_4 SNIRLostPackets_CCH 0
scalar SlicingScenario.node[8].nic.mac1609_4 RXTXLostPackets_CCH 0
scalar SlicingScenario.node[8].nic.mac1609_4 TotalLostPackets_CCH 0
scalar SlicingScenario.node[8].nic.mac1609_4 DroppedPacketsInMac_CCH 0
scalar SlicingScenario.node[8].nic.mac1609_4 TooLittleTime_CCH 0
scalar SlicingScenario.node[8].nic.mac1609_4 TimesIntoBackoff_CCH 0
scalar SlicingScenario.node[8].nic.mac1609_4 SlotsBackoff_CCH 0
scalar SlicingScenario.node[8].nic.mac1609_4 NumInternalContention_CCH 0
scalar SlicingScenario.node[8].nic.mac1609_4 RemainingPacketsInEDCA_CCH 0
scalar SlicingScenario.node[8].nic.mac1609_4 totalBusyTime_CCH 0
scalar SlicingScenario.node[8].nic.mac1609_4 ReceivedUnicastPackets_SCH 0
scalar SlicingScenario.node[8].nic.mac1609_4 ReceivedBroadcasts_SCH 563
scalar SlicingScenario.node[8].nic.mac1609_4 SentPackets_SCH 0
scalar SlicingScenario.node[8].nic.mac1609_4 SentAcknowledgements_SCH 0
scalar SlicingScenario.node[8].nic.mac1609_4 SNIRLostPackets_SCH 0
scalar SlicingScenario.node[8].nic.mac1609_4 RXTXLostPackets_SCH 0
scalar SlicingScenario.node[8].nic.mac1609_4 TotalLostPackets_SCH 0
scalar SlicingScenario.node[8].nic.mac1609_4 DroppedPacketsInMac_SCH 0
scalar SlicingScenario.node[8].nic.mac1609_4 TooLittleTime_SCH 0
scalar SlicingScenario.node[8].nic.mac1609_4 TimesIntoBackoff_SCH 0
scalar SlicingScenario.node[8].nic.mac1609_4 SlotsBackoff_SCH 0
scalar SlicingScenario.node[8].nic.mac1609_4 NumInternalContention_SCH 0
scalar SlicingScenario.node[8].nic.mac1609_4 RemainingPacketsInEDCA_SCH 0
scalar SlicingScenario.node[8].nic.mac1609_4 totalBusyTime_SCH 1.162032
scalar SlicingScenario.node[8].veinsmobility startTime 9
scalar SlicingScenario.node[8].veinsmobility totalTime 91
scalar SlicingScenario.node[8].veinsmobility stopTime 101
scalar SlicingScenario.node[8].veinsmobility minSpeed 10.610465276535
scalar SlicingScenario.node[8].veinsmobility maxSpeed 11.104532960351
scalar SlicingScenario.node[8].veinsmobility totalDistance 978.71416842641
scalar SlicingScenario.node[8].veinsmobility totalCO2Emission 160.57423520229
scalar SlicingScenario.node[9].appl txPackets_67 0
scalar SlicingScenario.node[9].appl rxPackets_67 0
scalar SlicingScenario.node[9].appl rxNeighborPackets_67 0
scalar SlicingScenario.node[9].appl meanDelay_67 0
scalar SlicingScenario.node[9].appl meanJitter_67 0
scalar SlicingScenario.node[9].appl meanRxPacketSize_67 0
scalar SlicingScenario.node[9].appl meanTxPacketSize_67 0
scalar SlicingScenario.node[9].appl meanRxThroughput_67 0
scalar SlicingScenario.node[9].appl meanTxThroughput_67 0
scalar SlicingScenario.node[9].appl rxTimeOfService_67 0
scalar SlicingScenario.node[9].appl txTimeOfService_67 0
scalar SlicingScenario.node[9].appl txPackets_41_67 0
scalar SlicingScenario.node[9].appl rxPackets_41_67 20
scalar SlicingScenario.node[9].appl rxNeighborPackets_41_67 226
scalar SlicingScenario.node[9].appl meanDelay_41_67 0.002930685875
scalar SlicingScenario.node[9].appl meanJitter_41_67 0.000190620552
scalar SlicingScenario.node[9].appl meanRxPacketSize_41_67 1510
scalar SlicingScenario.node[9].appl meanTxPacketSize_41_67 0
scalar SlicingScenario.node[9].appl meanRxThroughput_41_67 3178.9062435873
scalar SlicingScenario.node[9].appl meanTxThroughput_41_67 0
scalar SlicingScenario.node[9].appl rxTimeOfService_41_67 76.000983195831
scalar SlicingScenario.node[9].appl txTimeOfService_41_67 0
scalar SlicingScenario.node[9].nic.phy80211p busyTime 0.013124347826087
scalar SlicingScenario.node[9].nic.phy80211p ncollisions 0
scalar SlicingScenario.node[9].nic.phy80211p UnderSensitivityPackets 56
scalar SlicingScenario.node[9].nic.mac1609_4 ReceivedUnicastPackets_CCH 0
scalar SlicingScenario.node[9].nic.mac1609_4 ReceivedBroadcasts_CCH 0
scalar SlicingScenario.node[9].nic.mac1609_4 SentPackets_CCH 0
scalar SlicingScenario.node[9].nic.mac1609_4 SentAcknowledgements_CCH 0
scalar SlicingScenario.node[9].nic.mac1609_4 SNIRLostPackets_CCH 0
scalar SlicingScenario.node[9].nic.mac1609_4 RXTXLostPackets_CCH 0
scalar SlicingScenario.node[9].nic.mac1609_4 TotalLostPackets_CCH 0
scalar SlicingScenario.node[9].nic.mac1609_4 DroppedPacketsInMac_CCH 0
scalar SlicingScenario.node[9].nic.mac1609_4 TooLittleTime_CCH 0
scalar SlicingScenario.node[9].nic.mac1609_4 TimesIntoBackoff_CCH 0
scalar SlicingScenario.node[9].nic.mac1609_4 SlotsBackoff_CCH 0
scalar SlicingScenario.node[9].nic.mac1609_4 NumInternalContention_CCH 0
scalar SlicingScenario.node[9].nic.mac1609_4 RemainingPacketsInEDCA_CCH 0
scalar SlicingScenario.node[9].nic.mac1609_4 totalBusyTime_CCH 0
scalar SlicingScenario.node[9].nic.mac1609_4 ReceivedUnicastPackets_SCH 0
scalar SlicingScenario.node[9].nic.mac1609_4 ReceivedBroadcasts_SCH 585
scalar SlicingScenario.node[9].nic.mac1609_4 SentPackets_SCH 0
scalar SlicingScenario.node[9].nic.mac1609_4 SentAcknowledgements_SCH 0
scalar SlicingScenario.node[9].nic.mac1609_4 SNIRLostPackets_SCH 0
scalar SlicingScenario.node[9].nic.mac1609_4 RXTXLostPackets_SCH 0
scalar SlicingScenario.node[9].nic.mac1609_4 TotalLostPackets_SCH 0
scalar SlicingScenario.node[9].nic.mac1609_4 DroppedPacketsInMac_SCH 0
scalar SlicingScenario.node[9].nic.mac1609_4 TooLittleTime_SCH 0
scalar SlicingScenario.node[9].nic.mac1609_4 TimesIntoBackoff_SCH 0
scalar SlicingScenario.node[9].nic.mac1609_4 SlotsBackoff_SCH 0
scalar SlicingScenario.node[9].nic.mac1609_4 NumInternalContention_SCH 0
scalar SlicingScenario.node[9].nic.mac1609_4 RemainingPacketsInEDCA_SCH 0
scalar SlicingScenario.node[9].nic.mac1609_4 totalBusyTime_SCH 1.20744
scalar SlicingScenario.node[9].veinsmobility startTime 10
scalar SlicingScenario.node[9].veinsmobility totalTime 91
scalar SlicingScenario.node[9].veinsmobility stopTime 102
scalar SlicingScenario.node[9].veinsmobility minSpeed 10.616595785031
scalar SlicingScenario.node[9].veinsmobility maxSpeed 11.090713418219
scalar SlicingScenario.node[9].veinsmobility totalDistance 977.97073036719
scalar SlicingScenario.node[9].veinsmobility totalCO2Emission 158.02733087503
scalar SlicingScenario.node[10].appl txPackets_73 0
scalar SlicingScenario.node[10].appl rxPackets_73 0
scalar SlicingScenario.node[10].appl rxNeighborPackets_73 0
scalar SlicingScenario.node[10].appl meanDelay_73 0
scalar SlicingScenario.node[10].appl meanJitter_73 0
scalar SlicingScenario.node[10].appl meanRxPacketSize_73 0
scalar SlicingScenario.node[10].appl meanTxPacketSize_73 0
scalar SlicingScenario.node[10].appl meanRxThroughput_73 0
scalar SlicingScenario.node[10].appl meanTxThroughput_73 0
scalar SlicingScenario.node[10].appl rxTimeOfService_73 0
scalar SlicingScenario.node[10].appl txTimeOfService_73 0
scalar SlicingScenario.node[10].appl txPackets_40_73 0
scalar SlicingScenario.node[10].appl rxPackets_40_73 20
scalar SlicingScenario.node[10].appl rxNeighborPackets_40_73 329
scalar SlicingScenario.node[10].appl meanDelay_40_73 0.00207481052
scalar SlicingScenario.node[10].appl meanJitter_40_73 0.00010948172
scalar SlicingScenario.node[10].appl meanRxPacketSize_40_73 1510
scalar SlicingScenario.node[10].appl meanTxPacketSize_40_73 0
scalar SlicingScenario.node[10].appl meanRxThroughput_40_73 3178.9471918393
scalar SlicingScenario.node[10].appl meanTxThroughput_40_73 0
scalar SlicingScenario.node[10].appl rxTimeOfService_40_73 76.00000422159
scalar SlicingScenario.node[10].appl txTimeOfService_40_73 0
scalar SlicingScenario.node[10].nic.phy80211p busyTime 0.013493677419355
scalar SlicingScenario.node[10].nic.phy80211p ncollisions 0
scalar SlicingScenario.node[10].nic.phy80211p UnderSensitivityPackets 58
scalar SlicingScenario.node[10].nic.mac1609_4 ReceivedUnicastPackets_CCH 0
scalar SlicingScenario.node[10].nic.mac1609_4 ReceivedBroadcasts_CCH 0
scalar SlicingScenario.node[10].nic.mac1609_4 SentPackets_CCH 0
scalar SlicingScenario.node[10].nic.mac1609_4 SentAcknowledgements_CCH 0
scalar SlicingScenario.node[10].nic.mac1609_4 SNIRLostPackets_CCH 0
scalar SlicingScenario.node[10].nic.mac1609_4 RXTXLostPackets_CCH 0
scalar SlicingScenario.node[10].nic.mac1609_4 TotalLostPackets_CCH 0
scalar SlicingScenario.node[10].nic.mac1609_4 DroppedPacketsInMac_CCH 0
scalar SlicingScenario.node[10].nic.mac1609_4 TooLittleTime_CCH 0
scalar SlicingScenario.node[10].nic.mac1609_4 TimesIntoBackoff_CCH 0
scalar SlicingScenario.node[10].nic.mac1609_4 SlotsBackoff_CCH 0
scalar SlicingScenario.node[10].nic.mac1609_4 NumInternalContention_CCH 0
scalar SlicingScenario.node[10].nic.mac1609_4 RemainingPacketsInEDCA_CCH 0
scalar SlicingScenario.node[10].nic.mac1609_4 totalBusyTime_CCH 0
scalar SlicingScenario.node[10].nic.mac1609_4 ReceivedUnicastPackets_SCH 0
scalar SlicingScenario.node[10].nic.mac1609_4 ReceivedBroadcasts_SCH 608
scalar SlicingScenario.node[10].nic.mac1609_4 SentPackets_SCH 0
scalar SlicingScenario.node[10].nic.mac1609_4 SentAcknowledgements_SCH 0
scalar SlicingScenario.node[10].nic.mac1609_4 SNIRLostPackets_SCH 0
scalar SlicingScenario.node[10].nic.mac1609_4 RXTXLostPackets_SCH 0
scalar SlicingScenario.node[10].nic.mac1609_4 TotalLostPackets_SCH 0
scalar SlicingScenario.node[10].nic.mac1609_4 DroppedPacketsInMac_SCH 0
scalar SlicingScenario.node[10].nic.mac1609_4 TooLittleTime_SCH 0
scalar SlicingScenario.node[10].nic.mac1609_4 TimesIntoBackoff_SCH 0
scalar SlicingScenario.node[10].nic.mac1609_4 SlotsBackoff_SCH 0
scalar SlicingScenario.node[10].nic.mac1609_4 NumInternalContention_SCH 0
scalar SlicingScenario.node[10].nic.mac1609_4 RemainingPacketsInEDCA_SCH 0
scalar SlicingScenario.node[10].nic.mac1609_4 totalBusyTime_SCH 1.254912
scalar SlicingScenario.node[10].veinsmobility startTime 11
scalar SlicingScenario.node[10].veinsmobility totalTime 92
scalar SlicingScenario.node[10].veinsmobility stopTime 104
scalar SlicingScenario.node[10].veinsmobility minSpeed 8.0064184560189
scalar SlicingScenario.node[10].veinsmobility maxSpeed 11.102655315786
scalar SlicingScenario.node[10].veinsmobility totalDistance 982.23425156336
scalar SlicingScenario.node[10].veinsmobility totalCO2Emission 165.87764977134
scalar SlicingScenario.node[11].appl txPackets_79 0
scalar SlicingScenario.node[11].appl rxPackets_79 0
scalar SlicingScenario.node[11].appl rxNeighborPackets_79 0
scalar SlicingScenario.node[11].appl meanDelay_79 0
scalar SlicingScenario.node[11].appl meanJitter_79 0
scalar SlicingScenario.node[11].appl meanRxPacketSize_79 0
scalar SlicingScenario.node[11].appl meanTxPacketSize_79 0
scalar SlicingScenario.node[11].appl meanRxThroughput_79 0
scalar SlicingScenario.node[11].appl meanTxThroughput_79 0
scalar SlicingScenario.node[11].appl rxTimeOfService_79 0
scalar SlicingScenario.node[11].appl txTimeOfService_79 0
scalar SlicingScenario.node[11].appl txPackets_41_79 0
scalar SlicingScenario.node[11].appl rxPackets_41_79 19
scalar SlicingScenario.node[11].appl rxNeighborPackets_41_79 240
scalar SlicingScenario.node[11].appl meanDelay_41_79 0.002073422326
scalar SlicingScenario.node[11].appl meanJitter_41_79 0.000115952762
scalar SlicingScenario.node[11].appl meanRxPacketSize_41_79 1510
scalar SlicingScenario.node[11].appl meanTxPacketSize_41_79 0
scalar SlicingScenario.node[11].appl meanRxThroughput_41_79 3187.7779901414
scalar SlicingScenario.node[11].appl meanTxThroughput_41_79 0
scalar SlicingScenario.node[11].appl rxTimeOfService_41_79 71.999995203499
scalar SlicingScenario.node[11].appl txTimeOfService_41_79 0
scalar SlicingScenario.node[11].nic.phy80211p busyTime 0.013640347826087
scalar SlicingScenario.node[11].nic.phy80211p ncollisions 0
scalar SlicingScenario.node[11].nic.phy80211p UnderSensitivityPackets 58
scalar SlicingScenario.node[11].nic.mac1609_4 ReceivedUnicastPackets_CCH 0
scalar SlicingScenario.node[11].nic.mac1609_4 ReceivedBroadcasts_CCH 0
scalar SlicingScenario.node[11].nic.mac1609_4 SentPackets_CCH 0
scalar SlicingScenario.node[11].nic.mac1609_4 SentAcknowledgements_CCH 0
scalar SlicingScenario.node[11].nic.mac1609_4 SNIRLostPackets_CCH 0
scalar SlicingScenario.node[11].nic.mac1609_4 RXTXLostPackets_CCH 0
scalar SlicingScenario.node[11].nic.mac1609_4 TotalLostPackets_CCH 0
scalar SlicingScenario.node[11].nic.mac1609_4 DroppedPacketsInMac_CCH 0
scalar SlicingScenario.node[11].nic.mac1609_4 TooLittleTime_CCH 0
scalar SlicingScenario.node[11].nic.mac1609_4 TimesIntoBackoff_CCH 0
scalar SlicingScenario.node[11].nic.mac1609_4 SlotsBackoff_CCH 0
scalar SlicingScenario.node[11].nic.mac1609_4 NumInternalContention_CCH 0
scalar SlicingScenario.node[11].nic.mac1609_4 RemainingPacketsInEDCA_CCH 0
scalar SlicingScenario.node[11].nic.mac1609_4 totalBusyTime_CCH 0
scalar SlicingScenario.node[11].nic.mac1609_4 ReceivedUnicastPackets_SCH 0
scalar SlicingScenario.node[11].nic.mac1609_4 ReceivedBroadcasts_SCH 608
scalar SlicingScenario.node[11].nic.mac1609_4 SentPackets_SCH 0
scalar SlicingScenario.node[11].nic.mac1609_4 SentAcknowledgements_SCH 0
scalar SlicingScenario.node[11].nic.mac1609_4 SNIRLostPackets_SCH 0
scalar SlicingScenario.node[11].nic.mac1609_4 RXTXLostPackets_SCH 0
scalar SlicingScenario.node[11].nic.mac1609_4 TotalLostPackets_SCH 0
scalar SlicingScenario.node[11].nic.mac1609_4 DroppedPacketsInMac_SCH 0
scalar SlicingScenario.node[11].nic.mac1609_4 TooLittleTime_SCH 0
scalar SlicingScenario.node[11].nic.mac1609_4 TimesIntoBackoff_SCH 0
scalar SlicingScenario.node[11].nic.mac1609_4 SlotsBackoff_SCH 0
scalar SlicingScenario.node[11].nic.mac1609_4 NumInternalContention_SCH 0
scalar SlicingScenario.node[11].nic.mac1609_4 RemainingPacketsInEDCA_SCH 0
scalar SlicingScenario.node[11].nic.mac1609_4 totalBusyTime_SCH 1.254912
scalar SlicingScenario.node[11].veinsmobility startTime 12
scalar SlicingScenario.node[11].veinsmobility totalTime 91
scalar SlicingScenario.node[11].veinsmobility stopTime 104
scalar SlicingScenario.node[11].veinsmobility minSpeed 10.623809639844
scalar SlicingScenario.node[11].veinsmobility maxSpeed 11.105268047089
scalar SlicingScenario.node[11].veinsmobility totalDistance 980.0281049253
scalar SlicingScenario.node[11].veinsmobility totalCO2Emission 158.52179862013
scalar SlicingScenario.node[12].appl txPackets_85 0
scalar SlicingScenario.node[12].appl rxPackets_85 0
scalar SlicingScenario.node[12].appl rxNeighborPackets_85 0
scalar SlicingScenario.node[12].appl meanDelay_85 0
scalar SlicingScenario.node[12].appl meanJitter_85 0
scalar SlicingScenario.node[12].appl meanRxPacketSize_85 0
scalar SlicingScenario.node[12].appl meanTxPacketSize_85 0
scalar SlicingScenario.node[12].appl meanRxThroughput_85 0
scalar SlicingScenario.node[12].appl meanTxThroughput_85 0
scalar SlicingScenario.node[12].appl rxTimeOfService_85 0
scalar SlicingScenario.node[12].appl txTimeOfService_85 0
scalar SlicingScenario.node[12].appl txPackets_41_85 0
scalar SlicingScenario.node[12].appl rxPackets_41_85 19
scalar SlicingScenario.node[12].appl rxNeighborPackets_41_85 239
scalar SlicingScenario.node[12].appl meanDelay_41_85 0.002071160773
scalar SlicingScenario.node[12].appl meanJitter_41_85 0.000115981823
scalar SlicingScenario.node[12].appl meanRxPacketSize_41_85 1510
scalar SlicingScenario.node[12].appl meanTxPacketSize_41_85 0
scalar SlicingScenario.node[12].appl meanRxThroughput_41_85 3187.7781641614
scalar SlicingScenario.node[12].appl meanTxThroughput_41_85 0
scalar SlicingScenario.node[12].appl rxTimeOfService_41_85 71.999991273038
scalar SlicingScenario.node[12].appl txTimeOfService_41_85 0
scalar SlicingScenario.node[12].nic.phy80211p busyTime 0.013550608695652
scalar SlicingScenario.node[12].nic.phy80211p ncollisions 0
scalar SlicingScenario.node[12].nic.phy80211p UnderSensitivityPackets 83
scalar SlicingScenario.node[12].nic.mac1609_4 ReceivedUnicastPackets_CCH 0
scalar SlicingScenario.node[12].nic.mac1609_4 ReceivedBroadcasts_CCH 0
scalar SlicingScenario.node[12].nic.mac1609_4 SentPackets_CCH 0
scalar SlicingScenario.node[12].nic.mac1609_4 SentAcknowledgements_CCH 0
scalar SlicingScenario.node[12].nic.mac1609_4 SNIRLostPackets_CCH 0
scalar SlicingScenario.node[12].nic.mac1609_4 RXTXLostPackets_CCH 0
scalar SlicingScenario.node[12].nic.mac1609_4 TotalLostPackets_CCH 0
scalar SlicingScenario.node[12].nic.mac1609_4 DroppedPacketsInMac_CCH 0
scalar SlicingScenario.node[12].nic.mac1609_4 TooLittleTime_CCH 0
scalar SlicingScenario.node[12].nic.mac1609_4 TimesIntoBackoff_CCH 0
scalar SlicingScenario.node[12].nic.mac1609_4 SlotsBackoff_CCH 0
scalar SlicingScenario.node[12].nic.mac1609_4 NumInternalContention_CCH 0
scalar SlicingScenario.node[12].nic.mac1609_4 RemainingPacketsInEDCA_CCH 0
scalar SlicingScenario.node[12].nic.mac1609_4 totalBusyTime_CCH 0
scalar SlicingScenario.node[12].nic.mac1609_4 ReceivedUnicastPackets_SCH 0
scalar SlicingScenario.node[12].nic.mac1609_4 ReceivedBroadcasts_SCH 604
scalar SlicingScenario.node[12].nic.mac1609_4 SentPackets_SCH 0
scalar SlicingScenario.node[12].nic.mac1609_4 SentAcknowledgements_SCH 0
scalar SlicingScenario.node[12].nic.mac1609_4 SNIRLostPackets_SCH 0
scalar SlicingScenario.node[12].nic.mac1609_4 RXTXLostPackets_SCH 0
scalar SlicingScenario.node[12].nic.mac1609_4 TotalLostPackets_SCH 0
scalar SlicingScenario.node[12].nic.mac1609_4 DroppedPacketsInMac_SCH 0
scalar SlicingScenario.node[12].nic.mac1609_4 TooLittleTime_SCH 0
scalar SlicingScenario.node[12].nic.mac1609_4 TimesIntoBackoff_SCH 0
scalar SlicingScenario.node[12].nic.mac1609_4 SlotsBackoff_SCH 0
scalar SlicingScenario.node[12].nic.mac1609_4 NumInternalContention_SCH 0
scalar SlicingScenario.node[12].nic.mac1609_4 RemainingPacketsInEDCA_SCH 0
scalar SlicingScenario.node[12].nic.mac1609_4 totalBusyTime_SCH 1.246656
scalar SlicingScenario.node[12].veinsmobility startTime 13
scalar SlicingScenario.node[12].veinsmobility totalTime 91
scalar SlicingScenario.node[12].veinsmobility stopTime 105
scalar SlicingScenario.node[12].veinsmobility minSpeed 10.610634311466
scalar SlicingScenario.node[12].veinsmobility maxSpeed 11.106402183548
scalar SlicingScenario.node[12].veinsmobility totalDistance 979.30907344728
scalar SlicingScenario.node[12].veinsmobility totalCO2Emission 157.30754317515
scalar SlicingScenario.node[13].appl txPackets_91 0
scalar SlicingScenario.node[13].appl rxPackets_91 0
scalar SlicingScenario.node[13].appl rxNeighborPackets_91 0
scalar SlicingScenario.node[13].appl meanDelay_91 0
scalar SlicingScenario.node[13].appl meanJitter_91 0
scalar SlicingScenario.node[13].appl meanRxPacketSize_91 0
scalar SlicingScenario.node[13].appl meanTxPacketSize_91 0
scalar SlicingScenario.node[13].appl meanRxThroughput_91 0
scalar SlicingScenario.node[13].appl meanTxThroughput_91 0
scalar SlicingScenario.node[13].appl rxTimeOfService_91 0
scalar SlicingScenario.node[13].appl txTimeOfService_91 0
scalar SlicingScenario.node[13].appl txPackets_40_91 0
scalar SlicingScenario.node[13].appl rxPackets_40_91 19
scalar SlicingScenario.node[13].appl rxNeighborPackets_40_91 335
scalar SlicingScenario.node[13].appl meanDelay_40_91 0.002074271793
scalar SlicingScenario.node[13].appl meanJitter_40_91 0.000115519719
scalar SlicingScenario.node[13].appl meanRxPacketSize_40_91 1510
scalar SlicingScenario.node[13].appl meanTxPacketSize_40_91 0
scalar SlicingScenario.node[13].appl meanRxThroughput_40_91 3187.7775874025
scalar SlicingScenario.node[13].appl meanTxThroughput_40_91 0
scalar SlicingScenario.node[13].appl rxTimeOfService_40_91 72.000004299866
scalar SlicingScenario.node[13].appl txTimeOfService_40_91 0
scalar SlicingScenario.node[13].nic.phy80211p busyTime 0.013804387096774
scalar SlicingScenario.node[13].nic.phy80211p ncollisions 0
scalar SlicingScenario.node[13].nic.phy80211p UnderSensitivityPackets 94
scalar SlicingScenario.node[13].nic.mac1609_4 ReceivedUnicastPackets_CCH 0
scalar SlicingScenario.node[13].nic.mac1609_4 ReceivedBroadcasts_CCH 0
scalar SlicingScenario.node[13].nic.mac1609_4 SentPackets_CCH 0
scalar SlicingScenario.node[13].nic.mac1609_4 SentAcknowledgements_CCH 0
scalar SlicingScenario.node[13].nic.mac1609_4 SNIRLostPackets_CCH 0
scalar SlicingScenario.node[13].nic.mac1609_4 RXTXLostPackets_CCH 0
scalar SlicingScenario.node[13].nic.mac1609_4 TotalLostPackets_CCH 0
scalar SlicingScenario.node[13].nic.mac1609_4 DroppedPacketsInMac_CCH 0
scalar SlicingScenario.node[13].nic.mac1609_4 TooLittleTime_CCH 0
scalar SlicingScenario.node[13].nic.mac1609_4 TimesIntoBackoff_CCH 0
scalar SlicingScenario.node[13].nic.mac1609_4 SlotsBackoff_CCH 0
scalar SlicingScenario.node[13].nic.mac1609_4 NumInternalContention_CCH 0
scalar SlicingScenario.node[13].nic.mac1609_4 RemainingPacketsInEDCA_CCH 0
scalar SlicingScenario.node[13].nic.mac1609_4 totalBusyTime_CCH 0
scalar SlicingScenario.node[13].nic.mac1609_4 ReceivedUnicastPackets_SCH 0
scalar SlicingScenario.node[13].nic.mac1609_4 ReceivedBroadcasts_SCH 622
scalar SlicingScenario.node[13].nic.mac1609_4 SentPackets_SCH 0
scalar SlicingScenario.node[13].nic.mac1609_4 SentAcknowledgements_SCH 0
scalar SlicingScenario.node[13].nic.mac1609_4 SNIRLostPackets_SCH 0
scalar SlicingScenario.node[13].nic.mac1609_4 RXTXLostPackets_SCH 0
scalar SlicingScenario.node[13].nic.mac1609_4 TotalLostPackets_SCH 0
scalar SlicingScenario.node[13].nic.mac1609_4 DroppedPacketsInMac_SCH 0
scalar SlicingScenario.node[13].nic.mac1609_4 TooLittleTime_SCH 0
scalar SlicingScenario.node[13].nic.mac1609_4 TimesIntoBackoff_SCH 0
scalar SlicingScenario.node[13].nic.mac1609_4 SlotsBackoff_SCH 0
scalar SlicingScenario.node[13].nic.mac1609_4 NumInternalContention_SCH 0
scalar SlicingScenario.node[13].nic.mac1609_4 RemainingPacketsInEDCA_SCH 0
scalar SlicingScenario.node[13].nic.mac1609_4 totalBusyTime_SCH 1.283808
scalar SlicingScenario.node[13].veinsmobility startTime 14
scalar SlicingScenario.node[13].veinsmobility totalTime 92
scalar SlicingScenario.node[13].veinsmobility stopTime 107
scalar SlicingScenario.node[13].veinsmobility minSpeed 8.120882275268
scalar SlicingScenario.node[13].veinsmobility maxSpeed 11.087663266589
scalar SlicingScenario.node[13].veinsmobility totalDistance 983.82515070824
scalar SlicingScenario.node[13].veinsmobility totalCO2Emission 167.75339904879
scalar SlicingScenario.node[15].appl txPackets_103 0
scalar SlicingScenario.node[15].appl rxPackets_103 0
scalar SlicingScenario.node[15].appl rxNeighborPackets_103 0
scalar SlicingScenario.node[15].appl meanDelay_103 0
scalar SlicingScenario.node[15].appl meanJitter_103 0
scalar SlicingScenario.node[15].appl meanRxPacketSize_103 0
scalar SlicingScenario.node[15].appl meanTxPacketSize_103 0
scalar SlicingScenario.node[15].appl meanRxThroughput_103 0
scalar SlicingScenario.node[15].appl meanTxThroughput_103 0
scalar SlicingScenario.node[15].appl rxTimeOfService_103 0
scalar SlicingScenario.node[15].appl txTimeOfService_103 0
scalar SlicingScenario.node[15].appl txPackets_40_103 0
scalar SlicingScenario.node[15].appl rxPackets_40_103 18
scalar SlicingScenario.node[15].appl rxNeighborPackets_40_103 350
scalar SlicingScenario.node[15].appl meanDelay_40_103 0.002070192073
scalar SlicingScenario.node[15].appl meanJitter_40_103 0.000122105872
scalar SlicingScenario.node[15].appl meanRxPacketSize_40_103 1510
scalar SlicingScenario.node[15].appl meanTxPacketSize_40_103 0
scalar SlicingScenario.node[15].appl meanRxThroughput_40_103 3197.6468549953
scalar SlicingScenario.node[15].appl meanTxThroughput_40_103 0
scalar SlicingScenario.node[15].appl rxTimeOfService_40_103 68.000004334538
scalar SlicingScenario.node[15].appl txTimeOfService_40_103 0
scalar SlicingScenario.node[15].nic.phy80211p busyTime 0.014582608695652
scalar SlicingScenario.node[15].nic.phy80211p ncollisions 0
scalar SlicingScenario.node[15].nic.phy80211p UnderSensitivityPackets 62
scalar SlicingScenario.node[15].nic.mac1609_4 ReceivedUnicastPackets_CCH 0
scalar SlicingScenario.node[15].nic.mac1609_4 ReceivedBroadcasts_CCH 0
scalar SlicingScenario.node[15].nic.mac1609_4 SentPackets_CCH 0
scalar SlicingScenario.node[15].nic.mac1609_4 SentAcknowledgements_CCH 0
scalar SlicingScenario.node[15].nic.mac1609_4 SNIRLostPackets_CCH 0
scalar SlicingScenario.node[15].nic.mac1609_4 RXTXLostPackets_CCH 0
scalar SlicingScenario.node[15].nic.mac1609_4 TotalLostPackets_CCH 0
scalar SlicingScenario.node[15].nic.mac1609_4 DroppedPacketsInMac_CCH 0
scalar SlicingScenario.node[15].nic.mac1609_4 TooLittleTime_CCH 0
scalar SlicingScenario.node[15].nic.mac1609_4 TimesIntoBackoff_CCH 0
scalar SlicingScenario.node[15].nic.mac1609_4 SlotsBackoff_CCH 0
scalar SlicingScenario.node[15].nic.mac1609_4 NumInternalContention_CCH 0
scalar SlicingScenario.node[15].nic.mac1609_4 RemainingPacketsInEDCA_CCH 0
scalar SlicingScenario.node[15].nic.mac1609_4 totalBusyTime_CCH 0
scalar SlicingScenario.node[15].nic.mac1609_4 ReceivedUnicastPackets_SCH 0
scalar SlicingScenario.node[15].nic.mac1609_4 ReceivedBroadcasts_SCH 650
scalar SlicingScenario.node[15].nic.mac1609_4 SentPackets_SCH 0
scalar SlicingScenario.node[15].nic.mac1609_4 SentAcknowledgements_SCH 0
scalar SlicingScenario.node[15].nic.mac1609_4 SNIRLostPackets_SCH 0
scalar SlicingScenario.node[15].nic.mac1609_4 RXTXLostPackets_SCH 0
scalar SlicingScenario.node[15].nic.mac1609_4 TotalLostPackets_SCH 0
scalar SlicingScenario.node[15].nic.mac1609_4 DroppedPacketsInMac_SCH 0
scalar SlicingScenario.node[15].nic.mac1609_4 TooLittleTime_SCH 0
scalar SlicingScenario.node[15].nic.mac1609_4 TimesIntoBackoff_SCH 0
scalar SlicingScenario.node[15].nic.mac1609_4 SlotsBackoff_SCH 0
scalar SlicingScenario.node[15].nic.mac1609_4 NumInternalContention_SCH 0
scalar SlicingScenario.node[15].nic.mac1609_4 RemainingPacketsInEDCA_SCH 0
scalar SlicingScenario.node[15].nic.mac1609_4 totalBusyTime_SCH 1.3416
scalar SlicingScenario.node[15].veinsmobility startTime 16
scalar SlicingScenario.node[15].veinsmobility totalTime 91
scalar SlicingScenario.node[15].veinsmobility stopTime 108
scalar SlicingScenario.node[15].veinsmobility minSpeed 10.613346661455
scalar SlicingScenario.node[15].veinsmobility maxSpeed 11.104805227267
scalar SlicingScenario.node[15].veinsmobility totalDistance 979.00135587567
scalar SlicingScenario.node[15].veinsmobility totalCO2Emission 158.80847399898
scalar SlicingScenario.node[17].appl txPackets_115 0
scalar SlicingScenario.node[17].appl rxPackets_115 0
scalar SlicingScenario.node[17].appl rxNeighborPackets_115 0
scalar SlicingScenario.node[17].appl meanDelay_115 0
scalar SlicingScenario.node[17].appl meanJitter_115 0
scalar SlicingScenario.node[17].appl meanRxPacketSize_115 0
scalar SlicingScenario.node[17].appl meanTxPacketSize_115 0
scalar SlicingScenario.node[17].appl meanRxThroughput_115 0
scalar SlicingScenario.node[17].appl meanTxThroughput_115 0
scalar SlicingScenario.node[17].appl rxTimeOfService_115 0
scalar SlicingScenario.node[17].appl txTimeOfService_115 0
scalar SlicingScenario.node[17].appl txPackets_40_115 0
scalar SlicingScenario.node[17].appl rxPackets_40_115 18
scalar SlicingScenario.node[17].appl rxNeighborPackets_40_115 359
scalar SlicingScenario.node[17].appl meanDelay_40_115 0.002077779635
scalar SlicingScenario.node[17].appl meanJitter_40_115 0.000122378367
scalar SlicingScenario.node[17].appl meanRxPacketSize_40_115 1510
scalar SlicingScenario.node[17].appl meanTxPacketSize_40_115 0
scalar SlicingScenario.node[17].appl meanRxThroughput_40_115 3197.6470361128
scalar SlicingScenario.node[17].appl meanTxThroughput_40_115 0
scalar SlicingScenario.node[17].appl rxTimeOfService_40_115 68.000000482959
scalar SlicingScenario.node[17].appl txTimeOfService_40_115 0
scalar SlicingScenario.node[17].nic.phy80211p busyTime 0.015008869565217
scalar SlicingScenario.node[17].nic.phy80211p ncollisions 0
scalar SlicingScenario.node[17].nic.phy80211p UnderSensitivityPackets 64
scalar SlicingScenario.node[17].nic.mac1609_4 ReceivedUnicastPackets_CCH 0
scalar SlicingScenario.node[17].nic.mac1609_4 ReceivedBroadcasts_CCH 0
scalar SlicingScenario.node[17].nic.mac1609_4 SentPackets_CCH 0
scalar SlicingScenario.node[17].nic.mac1609_4 SentAcknowledgements_CCH 0
scalar SlicingScenario.node[17].nic.mac1609_4 SNIRLostPackets_CCH 0
scalar SlicingScenario.node[17].nic.mac1609_4 RXTXLostPackets_CCH 0
scalar SlicingScenario.node[17].nic.mac1609_4 TotalLostPackets_CCH 0
scalar SlicingScenario.node[17].nic.mac1609_4 DroppedPacketsInMac_CCH 0
scalar SlicingScenario.node[17].nic.mac1609_4 TooLittleTime_CCH 0
scalar SlicingScenario.node[17].nic.mac1609_4 TimesIntoBackoff_CCH 0
scalar SlicingScenario.node[17].nic.mac1609_4 SlotsBackoff_CCH 0
scalar SlicingScenario.node[17].nic.mac1609_4 NumInternalContention_CCH 0
scalar SlicingScenario.node[17].nic.mac1609_4 RemainingPacketsInEDCA_CCH 0
scalar SlicingScenario.node[17].nic.mac1609_4 totalBusyTime_CCH 0
scalar SlicingScenario.node[17].nic.mac1609_4 ReceivedUnicastPackets_SCH 0
scalar SlicingScenario.node[17].nic.mac1609_4 ReceivedBroadcasts_SCH 669
scalar SlicingScenario.node[17].nic.mac1609_4 SentPackets_SCH 0
scalar SlicingScenario.node[17].nic.mac1609_4 SentAcknowledgements_SCH 0
scalar SlicingScenario.node[17].nic.mac1609_4 SNIRLostPackets_SCH 0
scalar SlicingScenario.node[17].nic.mac1609_4 RXTXLostPackets_SCH 0
scalar SlicingScenario.node[17].nic.mac1609_4 TotalLostPackets_SCH 0
scalar SlicingScenario.node[17].nic.mac1609_4 DroppedPacketsInMac_SCH 0
scalar SlicingScenario.node[17].nic.mac1609_4 TooLittleTime_SCH 0
scalar SlicingScenario.node[17].nic.mac1609_4 TimesIntoBackoff_SCH 0
scalar SlicingScenario.node[17].nic.mac1609_4 SlotsBackoff_SCH 0
scalar SlicingScenario.node[17].nic.mac1609_4 NumInternalContention_SCH 0
scalar SlicingScenario.node[17].nic.mac1609_4 RemainingPacketsInEDCA_SCH 0
scalar SlicingScenario.node[17].nic.mac1609_4 totalBusyTime_SCH 1.380816
scalar SlicingScenario.node[17].veinsmobility startTime 18
scalar SlicingScenario.node[17].veinsmobility totalTime 91
scalar SlicingScenario.node[17].veinsmobility stopTime 110
scalar SlicingScenario.node[17].veinsmobility minSpeed 10.618764978498
scalar SlicingScenario.node[17].veinsmobility maxSpeed 11.09507920932
scalar SlicingScenario.node[17].veinsmobility totalDistance 978.6451075051
scalar SlicingScenario.node[17].veinsmobility totalCO2Emission 158.53356678334
scalar SlicingScenario.node[14].appl txPackets_97 0
scalar SlicingScenario.node[14].appl rxPackets_97 0
scalar SlicingScenario.node[14].appl rxNeighborPackets_97 0
scalar SlicingScenario.node[14].appl meanDelay_97 0
scalar SlicingScenario.node[14].appl meanJitter_97 0
scalar SlicingScenario.node[14].appl meanRxPacketSize_97 0
scalar SlicingScenario.node[14].appl meanTxPacketSize_97 0
scalar SlicingScenario.node[14].appl meanRxThroughput_97 0
scalar SlicingScenario.node[14].appl meanTxThroughput_97 0
scalar SlicingScenario.node[14].appl rxTimeOfService_97 0
scalar SlicingScenario.node[14].appl txTimeOfService_97 0
scalar SlicingScenario.node[14].appl txPackets_40_97 0
scalar SlicingScenario.node[14].appl rxPackets_40_97 19
scalar SlicingScenario.node[14].appl rxNeighborPackets_40_97 358
scalar SlicingScenario.node[14].appl meanDelay_40_97 0.002071349715
scalar SlicingScenario.node[14].appl meanJitter_40_97 0.000115345962
scalar SlicingScenario.node[14].appl meanRxPacketSize_40_97 1510
scalar SlicingScenario.node[14].appl meanTxPacketSize_40_97 0
scalar SlicingScenario.node[14].appl meanRxThroughput_40_97 3187.7775910958
scalar SlicingScenario.node[14].appl meanTxThroughput_40_97 0
scalar SlicingScenario.node[14].appl rxTimeOfService_40_97 72.00000421645
scalar SlicingScenario.node[14].appl txTimeOfService_40_97 0
scalar SlicingScenario.node[14].nic.phy80211p busyTime 0.014534905263158
scalar SlicingScenario.node[14].nic.phy80211p ncollisions 0
scalar SlicingScenario.node[14].nic.phy80211p UnderSensitivityPackets 68
scalar SlicingScenario.node[14].nic.mac1609_4 ReceivedUnicastPackets_CCH 0
scalar SlicingScenario.node[14].nic.mac1609_4 ReceivedBroadcasts_CCH 0
scalar SlicingScenario.node[14].nic.mac1609_4 SentPackets_CCH 0
scalar SlicingScenario.node[14].nic.mac1609_4 SentAcknowledgements_CCH 0
scalar SlicingScenario.node[14].nic.mac1609_4 SNIRLostPackets_CCH 0
scalar SlicingScenario.node[14].nic.mac1609_4 RXTXLostPackets_CCH 0
scalar SlicingScenario.node[14].nic.mac1609_4 TotalLostPackets_CCH 0
scalar SlicingScenario.node[14].nic.mac1609_4 DroppedPacketsInMac_CCH 0
scalar SlicingScenario.node[14].nic.mac1609_4 TooLittleTime_CCH 0
scalar SlicingScenario.node[14].nic.mac1609_4 TimesIntoBackoff_CCH 0
scalar SlicingScenario.node[14].nic.mac1609_4 SlotsBackoff_CCH 0
scalar SlicingScenario.node[14].nic.mac1609_4 NumInternalContention_CCH 0
scalar SlicingScenario.node[14].nic.mac1609_4 RemainingPacketsInEDCA_CCH 0
scalar SlicingScenario.node[14].nic.mac1609_4 totalBusyTime_CCH 0
scalar SlicingScenario.node[14].nic.mac1609_4 ReceivedUnicastPackets_SCH 0
scalar SlicingScenario.node[14].nic.mac1609_4 ReceivedBroadcasts_SCH 669
scalar SlicingScenario.node[14].nic.mac1609_4 SentPackets_SCH 0
scalar SlicingScenario.node[14].nic.mac1609_4 SentAcknowledgements_SCH 0
scalar SlicingScenario.node[14].nic.mac1609_4 SNIRLostPackets_SCH 0
scalar SlicingScenario.node[14].nic.mac1609_4 RXTXLostPackets_SCH 0
scalar SlicingScenario.node[14].nic.mac1609_4 TotalLostPackets_SCH 0
scalar SlicingScenario.node[14].nic.mac1609_4 DroppedPacketsInMac_SCH 0
scalar SlicingScenario.node[14].nic.mac1609_4 TooLittleTime_SCH 0
scalar SlicingScenario.node[14].nic.mac1609_4 TimesIntoBackoff_SCH 0
scalar SlicingScenario.node[14].nic.mac1609_4 SlotsBackoff_SCH 0
scalar SlicingScenario.node[14].nic.mac1609_4 NumInternalContention_SCH 0
scalar SlicingScenario.node[14].nic.mac1609_4 RemainingPacketsInEDCA_SCH 0
scalar SlicingScenario.node[14].nic.mac1609_4 totalBusyTime_SCH 1.380816
scalar SlicingScenario.node[14].veinsmobility startTime 15
scalar SlicingScenario.node[14].veinsmobility totalTime 94
scalar SlicingScenario.node[14].veinsmobility stopTime 110
scalar SlicingScenario.node[14].veinsmobility minSpeed 4.6349831749205
scalar SlicingScenario.node[14].veinsmobility maxSpeed 11.101570721846
scalar SlicingScenario.node[14].veinsmobility totalDistance 980.98404446843
scalar SlicingScenario.node[14].veinsmobility totalCO2Emission 173.73363973908
scalar SlicingScenario.node[18].appl txPackets_121 0
scalar SlicingScenario.node[18].appl rxPackets_121 0
scalar SlicingScenario.node[18].appl rxNeighborPackets_121 0
scalar SlicingScenario.node[18].appl meanDelay_121 0
scalar SlicingScenario.node[18].appl meanJitter_121 0
scalar SlicingScenario.node[18].appl meanRxPacketSize_121 0
scalar SlicingScenario.node[18].appl meanTxPacketSize_121 0
scalar SlicingScenario.node[18].appl meanRxThroughput_121 0
scalar SlicingScenario.node[18].appl meanTxThroughput_121 0
scalar SlicingScenario.node[18].appl rxTimeOfService_121 0
scalar SlicingScenario.node[18].appl txTimeOfService_121 0
scalar SlicingScenario.node[18].appl txPackets_41_121 0
scalar SlicingScenario.node[18].appl rxPackets_41_121 18
scalar SlicingScenario.node[18].appl rxNeighborPackets_41_121 287
scalar SlicingScenario.node[18].appl meanDelay_41_121 0.057093501925
scalar SlicingScenario.node[18].appl meanJitter_41_121 0.003384164067
scalar SlicingScenario.node[18].appl meanRxPacketSize_41_121 1510
scalar SlicingScenario.node[18].appl meanTxPacketSize_41_121 0
scalar SlicingScenario.node[18].appl meanRxThroughput_41_121 3197.6464236566
scalar SlicingScenario.node[18].appl meanTxThroughput_41_121 0
scalar SlicingScenario.node[18].appl rxTimeOfService_41_121 68.000013507231
scalar SlicingScenario.node[18].appl txTimeOfService_41_121 0
scalar SlicingScenario.node[18].nic.phy80211p busyTime 0.015357935483871
scalar SlicingScenario.node[18].nic.phy80211p ncollisions 0
scalar SlicingScenario.node[18].nic.phy80211p UnderSensitivityPackets 66
scalar SlicingScenario.node[18].nic.mac1609_4 ReceivedUnicastPackets_CCH 0
scalar SlicingScenario.node[18].nic.mac1609_4 ReceivedBroadcasts_CCH 0
scalar SlicingScenario.node[18].nic.mac1609_4 SentPackets_CCH 0
scalar SlicingScenario.node[18].nic.mac1609_4 SentAcknowledgements_CCH 0
scalar SlicingScenario.node[18].nic.mac1609_4 SNIRLostPackets_CCH 0
scalar SlicingScenario.node[18].nic.mac1609_4 RXTXLostPackets_CCH 0
scalar SlicingScenario.node[18].nic.mac1609_4 TotalLostPackets_CCH 0
scalar SlicingScenario.node[18].nic.mac1609_4 DroppedPacketsInMac_CCH 0
scalar SlicingScenario.node[18].nic.mac1609_4 TooLittleTime_CCH 0
scalar SlicingScenario.node[18].nic.mac1609_4 TimesIntoBackoff_CCH 0
scalar SlicingScenario.node[18].nic.mac1609_4 SlotsBackoff_CCH 0
scalar SlicingScenario.node[18].nic.mac1609_4 NumInternalContention_CCH 0
scalar SlicingScenario.node[18].nic.mac1609_4 RemainingPacketsInEDCA_CCH 0
scalar SlicingScenario.node[18].nic.mac1609_4 totalBusyTime_CCH 0
scalar SlicingScenario.node[18].nic.mac1609_4 ReceivedUnicastPackets_SCH 0
scalar SlicingScenario.node[18].nic.mac1609_4 ReceivedBroadcasts_SCH 692
scalar SlicingScenario.node[18].nic.mac1609_4 SentPackets_SCH 0
scalar SlicingScenario.node[18].nic.mac1609_4 SentAcknowledgements_SCH 0
scalar SlicingScenario.node[18].nic.mac1609_4 SNIRLostPackets_SCH 0
scalar SlicingScenario.node[18].nic.mac1609_4 RXTXLostPackets_SCH 0
scalar SlicingScenario.node[18].nic.mac1609_4 TotalLostPackets_SCH 0
scalar SlicingScenario.node[18].nic.mac1609_4 DroppedPacketsInMac_SCH 0
scalar SlicingScenario.node[18].nic.mac1609_4 TooLittleTime_SCH 0
scalar SlicingScenario.node[18].nic.mac1609_4 TimesIntoBackoff_SCH 0
scalar SlicingScenario.node[18].nic.mac1609_4 SlotsBackoff_SCH 0
scalar SlicingScenario.node[18].nic.mac1609_4 NumInternalContention_SCH 0
scalar SlicingScenario.node[18].nic.mac1609_4 RemainingPacketsInEDCA_SCH 0
scalar SlicingScenario.node[18].nic.mac1609_4 totalBusyTime_SCH 1.428288
scalar SlicingScenario.node[18].veinsmobility startTime 19
scalar SlicingScenario.node[18].veinsmobility totalTime 92
scalar SlicingScenario.node[18].veinsmobility stopTime 112
scalar SlicingScenario.node[18].veinsmobility minSpeed 8.2759806983387
scalar SlicingScenario.node[18].veinsmobility maxSpeed 11.109341504881
scalar SlicingScenario.node[18].veinsmobility totalDistance 982.07737083776
scalar SlicingScenario.node[18].veinsmobility totalCO2Emission 165.86719822371
scalar SlicingScenario.node[16].appl txPackets_109 0
scalar SlicingScenario.node[16].appl rxPackets_109 0
scalar SlicingScenario.node[16].appl rxNeighborPackets_109 0
scalar SlicingScenario.node[16].appl meanDelay_109 0
scalar SlicingScenario.node[16].appl meanJitter_109 0
scalar SlicingScenario.node[16].appl meanRxPacketSize_109 0
scalar SlicingScenario.node[16].appl meanTxPacketSize_109 0
scalar SlicingScenario.node[16].appl meanRxThroughput_109 0
scalar SlicingScenario.node[16].appl meanTxThroughput_109 0
scalar SlicingScenario.node[16].appl rxTimeOfService_109 0
scalar SlicingScenario.node[16].appl txTimeOfService_109 0
scalar SlicingScenario.node[16].appl txPackets_41_109 0
scalar SlicingScenario.node[16].appl rxPackets_41_109 19
scalar SlicingScenario.node[16].appl rxNeighborPackets_41_109 286
scalar SlicingScenario.node[16].appl meanDelay_41_109 0.003010939986
scalar SlicingScenario.node[16].appl meanJitter_41_109 0.000242167502
scalar SlicingScenario.node[16].appl meanRxPacketSize_41_109 1510
scalar SlicingScenario.node[16].appl meanTxPacketSize_41_109 0
scalar SlicingScenario.node[16].appl meanRxThroughput_41_109 3187.7097136426
scalar SlicingScenario.node[16].appl meanTxThroughput_41_109 0
scalar SlicingScenario.node[16].appl rxTimeOfService_41_109 72.001537347554
scalar SlicingScenario.node[16].appl txTimeOfService_41_109 0
scalar SlicingScenario.node[16].nic.phy80211p busyTime 0.015034610526316
scalar SlicingScenario.node[16].nic.phy80211p ncollisions 0
scalar SlicingScenario.node[16].nic.phy80211p UnderSensitivityPackets 71
scalar SlicingScenario.node[16].nic.mac1609_4 ReceivedUnicastPackets_CCH 0
scalar SlicingScenario.node[16].nic.mac1609_4 ReceivedBroadcasts_CCH 0
scalar SlicingScenario.node[16].nic.mac1609_4 SentPackets_CCH 0
scalar SlicingScenario.node[16].nic.mac1609_4 SentAcknowledgements_CCH 0
scalar SlicingScenario.node[16].nic.mac1609_4 SNIRLostPackets_CCH 0
scalar SlicingScenario.node[16].nic.mac1609_4 RXTXLostPackets_CCH 0
scalar SlicingScenario.node[16].nic.mac1609_4 TotalLostPackets_CCH 0
scalar SlicingScenario.node[16].nic.mac1609_4 DroppedPacketsInMac_CCH 0
scalar SlicingScenario.node[16].nic.mac1609_4 TooLittleTime_CCH 0
scalar SlicingScenario.node[16].nic.mac1609_4 TimesIntoBackoff_CCH 0
scalar SlicingScenario.node[16].nic.mac1609_4 SlotsBackoff_CCH 0
scalar SlicingScenario.node[16].nic.mac1609_4 NumInternalContention_CCH 0
scalar SlicingScenario.node[16].nic.mac1609_4 RemainingPacketsInEDCA_CCH 0
scalar SlicingScenario.node[16].nic.mac1609_4 totalBusyTime_CCH 0
scalar SlicingScenario.node[16].nic.mac1609_4 ReceivedUnicastPackets_SCH 0
scalar SlicingScenario.node[16].nic.mac1609_4 ReceivedBroadcasts_SCH 692
scalar SlicingScenario.node[16].nic.mac1609_4 SentPackets_SCH 0
scalar SlicingScenario.node[16].nic.mac1609_4 SentAcknowledgements_SCH 0
scalar SlicingScenario.node[16].nic.mac1609_4 SNIRLostPackets_SCH 0
scalar SlicingScenario.node[16].nic.mac1609_4 RXTXLostPackets_SCH 0
scalar SlicingScenario.node[16].nic.mac1609_4 TotalLostPackets_SCH 0
scalar SlicingScenario.node[16].nic.mac1609_4 DroppedPacketsInMac_SCH 0
scalar SlicingScenario.node[16].nic.mac1609_4 TooLittleTime_SCH 0
scalar SlicingScenario.node[16].nic.mac1609_4 TimesIntoBackoff_SCH 0
scalar SlicingScenario.node[16].nic.mac1609_4 SlotsBackoff_SCH 0
scalar SlicingScenario.node[16].nic.mac1609_4 NumInternalContention_SCH 0
scalar SlicingScenario.node[16].nic.mac1609_4 RemainingPacketsInEDCA_SCH 0
scalar SlicingScenario.node[16].nic.mac1609_4 totalBusyTime_SCH 1.428288
scalar SlicingScenario.node[16].veinsmobility startTime 17
scalar SlicingScenario.node[16].veinsmobility totalTime 94
scalar SlicingScenario.node[16].veinsmobility stopTime 112
scalar SlicingScenario.node[16].veinsmobility minSpeed 4.2713606450907
scalar SlicingScenario.node[16].veinsmobility maxSpeed 11.108071159935
scalar SlicingScenario.node[16].veinsmobility totalDistance 979.87353354319
scalar SlicingScenario.node[16].veinsmobility totalCO2Emission 173.40468575283
scalar SlicingScenario.node[20].appl txPackets_133 0
scalar SlicingScenario.node[20].appl rxPackets_133 0
scalar SlicingScenario.node[20].appl rxNeighborPackets_133 0
scalar SlicingScenario.node[20].appl meanDelay_133 0
scalar SlicingScenario.node[20].appl meanJitter_133 0
scalar SlicingScenario.node[20].appl meanRxPacketSize_133 0
scalar SlicingScenario.node[20].appl meanTxPacketSize_133 0
scalar SlicingScenario.node[20].appl meanRxThroughput_133 0
scalar SlicingScenario.node[20].appl meanTxThroughput_133 0
scalar SlicingScenario.node[20].appl rxTimeOfService_133 0
scalar SlicingScenario.node[20].appl txTimeOfService_133 0
scalar SlicingScenario.node[20].appl txPackets_40_133 0
scalar SlicingScenario.node[20].appl rxPackets_40_133 17
scalar SlicingScenario.node[20].appl rxNeighborPackets_40_133 367
scalar SlicingScenario.node[20].appl meanDelay_40_133 0.002304358968
scalar SlicingScenario.node[20].appl meanJitter_40_133 0.000190034907
scalar SlicingScenario.node[20].appl meanRxPacketSize_40_133 1510
scalar SlicingScenario.node[20].appl meanTxPacketSize_40_133 0
scalar SlicingScenario.node[20].appl meanRxThroughput_40_133 3208.7117687405
scalar SlicingScenario.node[20].appl meanTxThroughput_40_133 0
scalar SlicingScenario.node[20].appl rxTimeOfService_40_133 64.000762549205
scalar SlicingScenario.node[20].appl txTimeOfService_40_133 0
scalar SlicingScenario.node[20].nic.phy80211p busyTime 0.015390260869565
scalar SlicingScenario.node[20].nic.phy80211p ncollisions 0
scalar SlicingScenario.node[20].nic.phy80211p UnderSensitivityPackets 93
scalar SlicingScenario.node[20].nic.mac1609_4 ReceivedUnicastPackets_CCH 0
scalar SlicingScenario.node[20].nic.mac1609_4 ReceivedBroadcasts_CCH 0
scalar SlicingScenario.node[20].nic.mac1609_4 SentPackets_CCH 0
[...]
scalar SlicingScenario.rsu[0].appl rxPackets_41_163 0
scalar SlicingScenario.rsu[0].appl rxNeighborPackets_41_163 0
scalar SlicingScenario.rsu[0].appl meanDelay_41_163 0
scalar SlicingScenario.rsu[0].appl meanJitter_41_163 0
scalar SlicingScenario.rsu[0].appl meanRxPacketSize_41_163 0
scalar SlicingScenario.rsu[0].appl meanTxPacketSize_41_163 1510
scalar SlicingScenario.rsu[0].appl meanRxThroughput_41_163 0
scalar SlicingScenario.rsu[0].appl meanTxThroughput_41_163 3047.2072072072
scalar SlicingScenario.rsu[0].appl rxTimeOfService_41_163 0
scalar SlicingScenario.rsu[0].appl txTimeOfService_41_163 444
scalar SlicingScenario.rsu[0].appl txPackets_41_175 111
scalar SlicingScenario.rsu[0].appl rxPackets_41_175 0
scalar SlicingScenario.rsu[0].appl rxNeighborPackets_41_175 0
scalar SlicingScenario.rsu[0].appl meanDelay_41_175 0
scalar SlicingScenario.rsu[0].appl meanJitter_41_175 0
scalar SlicingScenario.rsu[0].appl meanRxPacketSize_41_175 0
scalar SlicingScenario.rsu[0].appl meanTxPacketSize_41_175 1510
scalar SlicingScenario.rsu[0].appl meanRxThroughput_41_175 0
scalar SlicingScenario.rsu[0].appl meanTxThroughput_41_175 3047.4545454545
scalar SlicingScenario.rsu[0].appl rxTimeOfService_41_175 0
scalar SlicingScenario.rsu[0].appl txTimeOfService_41_175 440
scalar SlicingScenario.rsu[0].appl txPackets_41_187 110
scalar SlicingScenario.rsu[0].appl rxPackets_41_187 0
scalar SlicingScenario.rsu[0].appl rxNeighborPackets_41_187 0
scalar SlicingScenario.rsu[0].appl meanDelay_41_187 0
scalar SlicingScenario.rsu[0].appl meanJitter_41_187 0
scalar SlicingScenario.rsu[0].appl meanRxPacketSize_41_187 0
scalar SlicingScenario.rsu[0].appl meanTxPacketSize_41_187 1510
scalar SlicingScenario.rsu[0].appl meanRxThroughput_41_187 0
scalar SlicingScenario.rsu[0].appl meanTxThroughput_41_187 3047.7064220183
scalar SlicingScenario.rsu[0].appl rxTimeOfService_41_187 0
scalar SlicingScenario.rsu[0].appl txTimeOfService_41_187 436
scalar SlicingScenario.rsu[0].appl txPackets_41_193 110
scalar SlicingScenario.rsu[0].appl rxPackets_41_193 0
scalar SlicingScenario.rsu[0].appl rxNeighborPackets_41_193 0
scalar SlicingScenario.rsu[0].appl meanDelay_41_193 0
scalar SlicingScenario.rsu[0].appl meanJitter_41_193 0
scalar SlicingScenario.rsu[0].appl meanRxPacketSize_41_193 0
scalar SlicingScenario.rsu[0].appl meanTxPacketSize_41_193 1510
scalar SlicingScenario.rsu[0].appl meanRxThroughput_41_193 0
scalar SlicingScenario.rsu[0].appl meanTxThroughput_41_193 3047.7064220183
scalar SlicingScenario.rsu[0].appl rxTimeOfService_41_193 0
scalar SlicingScenario.rsu[0].appl txTimeOfService_41_193 436
scalar SlicingScenario.rsu[0].appl txPackets_41_199 109
scalar SlicingScenario.rsu[0].appl rxPackets_41_199 0
scalar SlicingScenario.rsu[0].appl rxNeighborPackets_41_199 0
scalar SlicingScenario.rsu[0].appl meanDelay_41_199 0
scalar SlicingScenario.rsu[0].appl meanJitter_41_199 0
scalar SlicingScenario.rsu[0].appl meanRxPacketSize_41_199 0
scalar SlicingScenario.rsu[0].appl meanTxPacketSize_41_199 1510
scalar SlicingScenario.rsu[0].appl meanRxThroughput_41_199 0
scalar SlicingScenario.rsu[0].appl meanTxThroughput_41_199 3047.962962963
scalar SlicingScenario.rsu[0].appl rxTimeOfService_41_199 0
scalar SlicingScenario.rsu[0].appl txTimeOfService_41_199 432
scalar SlicingScenario.rsu[0].appl txPackets_41_205 109
scalar SlicingScenario.rsu[0].appl rxPackets_41_205 0
scalar SlicingScenario.rsu[0].appl rxNeighborPackets_41_205 0
scalar SlicingScenario.rsu[0].appl meanDelay_41_205 0
scalar SlicingScenario.rsu[0].appl meanJitter_41_205 0
scalar SlicingScenario.rsu[0].appl meanRxPacketSize_41_205 0
scalar SlicingScenario.rsu[0].appl meanTxPacketSize_41_205 1510
scalar SlicingScenario.rsu[0].appl meanRxThroughput_41_205 0
scalar SlicingScenario.rsu[0].appl meanTxThroughput_41_205 3047.962962963
scalar SlicingScenario.rsu[0].appl rxTimeOfService_41_205 0
scalar SlicingScenario.rsu[0].appl txTimeOfService_41_205 432
scalar SlicingScenario.rsu[0].appl txPackets_41_217 108
scalar SlicingScenario.rsu[0].appl rxPackets_41_217 0
scalar SlicingScenario.rsu[0].appl rxNeighborPackets_41_217 0
scalar SlicingScenario.rsu[0].appl meanDelay_41_217 0
scalar SlicingScenario.rsu[0].appl meanJitter_41_217 0
scalar SlicingScenario.rsu[0].appl meanRxPacketSize_41_217 0
scalar SlicingScenario.rsu[0].appl meanTxPacketSize_41_217 1510
scalar SlicingScenario.rsu[0].appl meanRxThroughput_41_217 0
scalar SlicingScenario.rsu[0].appl meanTxThroughput_41_217 3048.2242990654
scalar SlicingScenario.rsu[0].appl rxTimeOfService_41_217 0
scalar SlicingScenario.rsu[0].appl txTimeOfService_41_217 428
scalar SlicingScenario.rsu[0].appl txPackets_41_223 107
scalar SlicingScenario.rsu[0].appl rxPackets_41_223 0
scalar SlicingScenario.rsu[0].appl rxNeighborPackets_41_223 0
scalar SlicingScenario.rsu[0].appl meanDelay_41_223 0
scalar SlicingScenario.rsu[0].appl meanJitter_41_223 0
scalar SlicingScenario.rsu[0].appl meanRxPacketSize_41_223 0
scalar SlicingScenario.rsu[0].appl meanTxPacketSize_41_223 1510
scalar SlicingScenario.rsu[0].appl meanRxThroughput_41_223 0
scalar SlicingScenario.rsu[0].appl meanTxThroughput_41_223 3048.4905660377
scalar SlicingScenario.rsu[0].appl rxTimeOfService_41_223 0
scalar SlicingScenario.rsu[0].appl txTimeOfService_41_223 424
scalar SlicingScenario.rsu[0].appl txPackets_41_241 106
scalar SlicingScenario.rsu[0].appl rxPackets_41_241 0
scalar SlicingScenario.rsu[0].appl rxNeighborPackets_41_241 0
scalar SlicingScenario.rsu[0].appl meanDelay_41_241 0
scalar SlicingScenario.rsu[0].appl meanJitter_41_241 0
scalar SlicingScenario.rsu[0].appl meanRxPacketSize_41_241 0
scalar SlicingScenario.rsu[0].appl meanTxPacketSize_41_241 1510
scalar SlicingScenario.rsu[0].appl meanRxThroughput_41_241 0
scalar SlicingScenario.rsu[0].appl meanTxThroughput_41_241 3048.7619047619
scalar SlicingScenario.rsu[0].appl rxTimeOfService_41_241 0
scalar SlicingScenario.rsu[0].appl txTimeOfService_41_241 420
scalar SlicingScenario.rsu[0].appl txPackets_41_247 105
scalar SlicingScenario.rsu[0].appl rxPackets_41_247 0
scalar SlicingScenario.rsu[0].appl rxNeighborPackets_41_247 0
scalar SlicingScenario.rsu[0].appl meanDelay_41_247 0
scalar SlicingScenario.rsu[0].appl meanJitter_41_247 0
scalar SlicingScenario.rsu[0].appl meanRxPacketSize_41_247 0
scalar SlicingScenario.rsu[0].appl meanTxPacketSize_41_247 1510
scalar SlicingScenario.rsu[0].appl meanRxThroughput_41_247 0
scalar SlicingScenario.rsu[0].appl meanTxThroughput_41_247 3049.0384615385
scalar SlicingScenario.rsu[0].appl rxTimeOfService_41_247 0
scalar SlicingScenario.rsu[0].appl txTimeOfService_41_247 416
scalar SlicingScenario.rsu[0].appl txPackets_41_265 104
scalar SlicingScenario.rsu[0].appl rxPackets_41_265 0
scalar SlicingScenario.rsu[0].appl rxNeighborPackets_41_265 0
scalar SlicingScenario.rsu[0].appl meanDelay_41_265 0
scalar SlicingScenario.rsu[0].appl meanJitter_41_265 0
scalar SlicingScenario.rsu[0].appl meanRxPacketSize_41_265 0
scalar SlicingScenario.rsu[0].appl meanTxPacketSize_41_265 1510
scalar SlicingScenario.rsu[0].appl meanRxThroughput_41_265 0
scalar SlicingScenario.rsu[0].appl meanTxThroughput_41_265 3049.3203883495
scalar SlicingScenario.rsu[0].appl rxTimeOfService_41_265 0
scalar SlicingScenario.rsu[0].appl txTimeOfService_41_265 412
scalar SlicingScenario.rsu[0].appl txPackets_41_277 103
scalar SlicingScenario.rsu[0].appl rxPackets_41_277 0
scalar SlicingScenario.rsu[0].appl rxNeighborPackets_41_277 0
scalar SlicingScenario.rsu[0].appl meanDelay_41_277 0
scalar SlicingScenario.rsu[0].appl meanJitter_41_277 0
scalar SlicingScenario.rsu[0].appl meanRxPacketSize_41_277 0
scalar SlicingScenario.rsu[0].appl meanTxPacketSize_41_277 1510
scalar SlicingScenario.rsu[0].appl meanRxThroughput_41_277 0
scalar SlicingScenario.rsu[0].appl meanTxThroughput_41_277 3049.6078431373
scalar SlicingScenario.rsu[0].appl rxTimeOfService_41_277 0
scalar SlicingScenario.rsu[0].appl txTimeOfService_41_277 408
scalar SlicingScenario.rsu[0].appl txPackets_41_283 102
scalar SlicingScenario.rsu[0].appl rxPackets_41_283 0
scalar SlicingScenario.rsu[0].appl rxNeighborPackets_41_283 0
scalar SlicingScenario.rsu[0].appl meanDelay_41_283 0
scalar SlicingScenario.rsu[0].appl meanJitter_41_283 0
scalar SlicingScenario.rsu[0].appl meanRxPacketSize_41_283 0
scalar SlicingScenario.rsu[0].appl meanTxPacketSize_41_283 1510
scalar SlicingScenario.rsu[0].appl meanRxThroughput_41_283 0
scalar SlicingScenario.rsu[0].appl meanTxThroughput_41_283 3049.900990099
scalar SlicingScenario.rsu[0].appl rxTimeOfService_41_283 0
scalar SlicingScenario.rsu[0].appl txTimeOfService_41_283 404
scalar SlicingScenario.rsu[0].appl txPackets_41_289 102
scalar SlicingScenario.rsu[0].appl rxPackets_41_289 0
scalar SlicingScenario.rsu[0].appl rxNeighborPackets_41_289 0
scalar SlicingScenario.rsu[0].appl meanDelay_41_289 0
scalar SlicingScenario.rsu[0].appl meanJitter_41_289 0
scalar SlicingScenario.rsu[0].appl meanRxPacketSize_41_289 0
scalar SlicingScenario.rsu[0].appl meanTxPacketSize_41_289 1510
scalar SlicingScenario.rsu[0].appl meanRxThroughput_41_289 0
scalar SlicingScenario.rsu[0].appl meanTxThroughput_41_289 3049.900990099
scalar SlicingScenario.rsu[0].appl rxTimeOfService_41_289 0
scalar SlicingScenario.rsu[0].appl txTimeOfService_41_289 404
scalar SlicingScenario.rsu[0].appl txPackets_41_295 101
scalar SlicingScenario.rsu[0].appl rxPackets_41_295 0
scalar SlicingScenario.rsu[0].appl rxNeighborPackets_41_295 0
scalar SlicingScenario.rsu[0].appl meanDelay_41_295 0
scalar SlicingScenario.rsu[0].appl meanJitter_41_295 0
scalar SlicingScenario.rsu[0].appl meanRxPacketSize_41_295 0
scalar SlicingScenario.rsu[0].appl meanTxPacketSize_41_295 1510
scalar SlicingScenario.rsu[0].appl meanRxThroughput_41_295 0
scalar SlicingScenario.rsu[0].appl meanTxThroughput_41_295 3050.2
scalar SlicingScenario.rsu[0].appl rxTimeOfService_41_295 0
scalar SlicingScenario.rsu[0].appl txTimeOfService_41_295 400
scalar SlicingScenario.rsu[0].appl txPackets_41_313 100
scalar SlicingScenario.rsu[0].appl rxPackets_41_313 0
scalar SlicingScenario.rsu[0].appl rxNeighborPackets_41_313 0
scalar SlicingScenario.rsu[0].appl meanDelay_41_313 0
scalar SlicingScenario.rsu[0].appl meanJitter_41_313 0
scalar SlicingScenario.rsu[0].appl meanRxPacketSize_41_313 0
scalar SlicingScenario.rsu[0].appl meanTxPacketSize_41_313 1510
scalar SlicingScenario.rsu[0].appl meanRxThroughput_41_313 0
scalar SlicingScenario.rsu[0].appl meanTxThroughput_41_313 3050.5050505051
scalar SlicingScenario.rsu[0].appl rxTimeOfService_41_313 0
scalar SlicingScenario.rsu[0].appl txTimeOfService_41_313 396
scalar SlicingScenario.rsu[0].appl txPackets_41_319 99
scalar SlicingScenario.rsu[0].appl rxPackets_41_319 0
scalar SlicingScenario.rsu[0].appl rxNeighborPackets_41_319 0
scalar SlicingScenario.rsu[0].appl meanDelay_41_319 0
scalar SlicingScenario.rsu[0].appl meanJitter_41_319 0
scalar SlicingScenario.rsu[0].appl meanRxPacketSize_41_319 0
scalar SlicingScenario.rsu[0].appl meanTxPacketSize_41_319 1510
scalar SlicingScenario.rsu[0].appl meanRxThroughput_41_319 0
scalar SlicingScenario.rsu[0].appl meanTxThroughput_41_319 3050.8163265306
scalar SlicingScenario.rsu[0].appl rxTimeOfService_41_319 0
scalar SlicingScenario.rsu[0].appl txTimeOfService_41_319 392
scalar SlicingScenario.rsu[0].appl txPackets_41_343 97
scalar SlicingScenario.rsu[0].appl rxPackets_41_343 0
scalar SlicingScenario.rsu[0].appl rxNeighborPackets_41_343 0
scalar SlicingScenario.rsu[0].appl meanDelay_41_343 0
scalar SlicingScenario.rsu[0].appl meanJitter_41_343 0
scalar SlicingScenario.rsu[0].appl meanRxPacketSize_41_343 0
scalar SlicingScenario.rsu[0].appl meanTxPacketSize_41_343 1510
scalar SlicingScenario.rsu[0].appl meanRxThroughput_41_343 0
scalar SlicingScenario.rsu[0].appl meanTxThroughput_41_343 3051.4583333333
scalar SlicingScenario.rsu[0].appl rxTimeOfService_41_343 0
scalar SlicingScenario.rsu[0].appl txTimeOfService_41_343 384
scalar SlicingScenario.rsu[0].appl txPackets_41_355 96
scalar SlicingScenario.rsu[0].appl rxPackets_41_355 0
scalar SlicingScenario.rsu[0].appl rxNeighborPackets_41_355 0
scalar SlicingScenario.rsu[0].appl meanDelay_41_355 0
scalar SlicingScenario.rsu[0].appl meanJitter_41_355 0
scalar SlicingScenario.rsu[0].appl meanRxPacketSize_41_355 0
scalar SlicingScenario.rsu[0].appl meanTxPacketSize_41_355 1510
scalar SlicingScenario.rsu[0].appl meanRxThroughput_41_355 0
scalar SlicingScenario.rsu[0].appl meanTxThroughput_41_355 3051.7894736842
scalar SlicingScenario.rsu[0].appl rxTimeOfService_41_355 0
scalar SlicingScenario.rsu[0].appl txTimeOfService_41_355 380
scalar SlicingScenario.rsu[0].appl txPackets_41_361 96
scalar SlicingScenario.rsu[0].appl rxPackets_41_361 0
scalar SlicingScenario.rsu[0].appl rxNeighborPackets_41_361 0
scalar SlicingScenario.rsu[0].appl meanDelay_41_361 0
scalar SlicingScenario.rsu[0].appl meanJitter_41_361 0
scalar SlicingScenario.rsu[0].appl meanRxPacketSize_41_361 0
scalar SlicingScenario.rsu[0].appl meanTxPacketSize_41_361 1510
scalar SlicingScenario.rsu[0].appl meanRxThroughput_41_361 0
scalar SlicingScenario.rsu[0].appl meanTxThroughput_41_361 3051.7894736842
scalar SlicingScenario.rsu[0].appl rxTimeOfService_41_361 0
scalar SlicingScenario.rsu[0].appl txTimeOfService_41_361 380
scalar SlicingScenario.rsu[0].appl txPackets_41_391 93
scalar SlicingScenario.rsu[0].appl rxPackets_41_391 0
scalar SlicingScenario.rsu[0].appl rxNeighborPackets_41_391 0
scalar SlicingScenario.rsu[0].appl meanDelay_41_391 0
scalar SlicingScenario.rsu[0].appl meanJitter_41_391 0
scalar SlicingScenario.rsu[0].appl meanRxPacketSize_41_391 0
scalar SlicingScenario.rsu[0].appl meanTxPacketSize_41_391 1510
scalar SlicingScenario.rsu[0].appl meanRxThroughput_41_391 0
scalar SlicingScenario.rsu[0].appl meanTxThroughput_41_391 3052.8260869565
scalar SlicingScenario.rsu[0].appl rxTimeOfService_41_391 0
scalar SlicingScenario.rsu[0].appl txTimeOfService_41_391 368
scalar SlicingScenario.rsu[0].appl txPackets_41_397 93
scalar SlicingScenario.rsu[0].appl rxPackets_41_397 0
scalar SlicingScenario.rsu[0].appl rxNeighborPackets_41_397 0
scalar SlicingScenario.rsu[0].appl meanDelay_41_397 0
scalar SlicingScenario.rsu[0].appl meanJitter_41_397 0
scalar SlicingScenario.rsu[0].appl meanRxPacketSize_41_397 0
scalar SlicingScenario.rsu[0].appl meanTxPacketSize_41_397 1510
scalar SlicingScenario.rsu[0].appl meanRxThroughput_41_397 0
scalar SlicingScenario.rsu[0].appl meanTxThroughput_41_397 3052.8260869565
scalar SlicingScenario.rsu[0].appl rxTimeOfService_41_397 0
scalar SlicingScenario.rsu[0].appl txTimeOfService_41_397 368
scalar SlicingScenario.rsu[0].appl txPackets_41_409 92
scalar SlicingScenario.rsu[0].appl rxPackets_41_409 0
scalar SlicingScenario.rsu[0].appl rxNeighborPackets_41_409 0
scalar SlicingScenario.rsu[0].appl meanDelay_41_409 0
scalar SlicingScenario.rsu[0].appl meanJitter_41_409 0
scalar SlicingScenario.rsu[0].appl meanRxPacketSize_41_409 0
scalar SlicingScenario.rsu[0].appl meanTxPacketSize_41_409 1510
scalar SlicingScenario.rsu[0].appl meanRxThroughput_41_409 0
scalar SlicingScenario.rsu[0].appl meanTxThroughput_41_409 3053.1868131868
scalar SlicingScenario.rsu[0].appl rxTimeOfService_41_409 0
scalar SlicingScenario.rsu[0].appl txTimeOfService_41_409 364
scalar SlicingScenario.rsu[0].appl txPackets_41_427 90
scalar SlicingScenario.rsu[0].appl rxPackets_41_427 0
scalar SlicingScenario.rsu[0].appl rxNeighborPackets_41_427 0
scalar SlicingScenario.rsu[0].appl meanDelay_41_427 0
scalar SlicingScenario.rsu[0].appl meanJitter_41_427 0
scalar SlicingScenario.rsu[0].appl meanRxPacketSize_41_427 0
scalar SlicingScenario.rsu[0].appl meanTxPacketSize_41_427 1510
scalar SlicingScenario.rsu[0].appl meanRxThroughput_41_427 0
scalar SlicingScenario.rsu[0].appl meanTxThroughput_41_427 3053.9325842697
scalar SlicingScenario.rsu[0].appl rxTimeOfService_41_427 0
scalar SlicingScenario.rsu[0].appl txTimeOfService_41_427 356
scalar SlicingScenario.rsu[0].appl txPackets_41_445 89
scalar SlicingScenario.rsu[0].appl rxPackets_41_445 0
scalar SlicingScenario.rsu[0].appl rxNeighborPackets_41_445 0
scalar SlicingScenario.rsu[0].appl meanDelay_41_445 0
scalar SlicingScenario.rsu[0].appl meanJitter_41_445 0
scalar SlicingScenario.rsu[0].appl meanRxPacketSize_41_445 0
scalar SlicingScenario.rsu[0].appl meanTxPacketSize_41_445 1510
scalar SlicingScenario.rsu[0].appl meanRxThroughput_41_445 0
scalar SlicingScenario.rsu[0].appl meanTxThroughput_41_445 3054.3181818182
scalar SlicingScenario.rsu[0].appl rxTimeOfService_41_445 0
scalar SlicingScenario.rsu[0].appl txTimeOfService_41_445 352
scalar SlicingScenario.rsu[0].appl txPackets_41_469 87
scalar SlicingScenario.rsu[0].appl rxPackets_41_469 0
scalar SlicingScenario.rsu[0].appl rxNeighborPackets_41_469 0
scalar SlicingScenario.rsu[0].appl meanDelay_41_469 0
scalar SlicingScenario.rsu[0].appl meanJitter_41_469 0
scalar SlicingScenario.rsu[0].appl meanRxPacketSize_41_469 0
scalar SlicingScenario.rsu[0].appl meanTxPacketSize_41_469 1510
scalar SlicingScenario.rsu[0].appl meanRxThroughput_41_469 0
scalar SlicingScenario.rsu[0].appl meanTxThroughput_41_469 3055.1162790698
scalar SlicingScenario.rsu[0].appl rxTimeOfService_41_469 0
scalar SlicingScenario.rsu[0].appl txTimeOfService_41_469 344
scalar SlicingScenario.rsu[0].appl txPackets_41_487 85
scalar SlicingScenario.rsu[0].appl rxPackets_41_487 0
scalar SlicingScenario.rsu[0].appl rxNeighborPackets_41_487 0
scalar SlicingScenario.rsu[0].appl meanDelay_41_487 0
scalar SlicingScenario.rsu[0].appl meanJitter_41_487 0
scalar SlicingScenario.rsu[0].appl meanRxPacketSize_41_487 0
scalar SlicingScenario.rsu[0].appl meanTxPacketSize_41_487 1510
scalar SlicingScenario.rsu[0].appl meanRxThroughput_41_487 0
scalar SlicingScenario.rsu[0].appl meanTxThroughput_41_487 3055.9523809524
scalar SlicingScenario.rsu[0].appl rxTimeOfService_41_487 0
scalar SlicingScenario.rsu[0].appl txTimeOfService_41_487 336
scalar SlicingScenario.rsu[0].nic.phy80211p busyTime 0
scalar SlicingScenario.rsu[0].nic.phy80211p ncollisions 0
scalar SlicingScenario.rsu[0].nic.phy80211p UnderSensitivityPackets 0
scalar SlicingScenario.rsu[0].nic.mac1609_4 ReceivedUnicastPackets_CCH 0
scalar SlicingScenario.rsu[0].nic.mac1609_4 ReceivedBroadcasts_CCH 0
scalar SlicingScenario.rsu[0].nic.mac1609_4 SentPackets_CCH 0
scalar SlicingScenario.rsu[0].nic.mac1609_4 SentAcknowledgements_CCH 0
scalar SlicingScenario.rsu[0].nic.mac1609_4 SNIRLostPackets_CCH 0
scalar SlicingScenario.rsu[0].nic.mac1609_4 RXTXLostPackets_CCH 0
scalar SlicingScenario.rsu[0].nic.mac1609_4 TotalLostPackets_CCH 0
scalar SlicingScenario.rsu[0].nic.mac1609_4 DroppedPacketsInMac_CCH 0
scalar SlicingScenario.rsu[0].nic.mac1609_4 TooLittleTime_CCH 0
scalar SlicingScenario.rsu[0].nic.mac1609_4 TimesIntoBackoff_CCH 0
scalar SlicingScenario.rsu[0].nic.mac1609_4 SlotsBackoff_CCH 0
scalar SlicingScenario.rsu[0].nic.mac1609_4 NumInternalContention_CCH 0
scalar SlicingScenario.rsu[0].nic.mac1609_4 RemainingPacketsInEDCA_CCH 0
scalar SlicingScenario.rsu[0].nic.mac1609_4 totalBusyTime_CCH 0
scalar SlicingScenario.rsu[0].nic.mac1609_4 ReceivedUnicastPackets_SCH 0
scalar SlicingScenario.rsu[0].nic.mac1609_4 ReceivedBroadcasts_SCH 0
scalar SlicingScenario.rsu[0].nic.mac1609_4 SentPackets_SCH 8399
scalar SlicingScenario.rsu[0].nic.mac1609_4 SentAcknowledgements_SCH 0
scalar SlicingScenario.rsu[0].nic.mac1609_4 SNIRLostPackets_SCH 0
scalar SlicingScenario.rsu[0].nic.mac1609_4 RXTXLostPackets_SCH 0
scalar SlicingScenario.rsu[0].nic.mac1609_4 TotalLostPackets_SCH 0
scalar SlicingScenario.rsu[0].nic.mac1609_4 DroppedPacketsInMac_SCH 0
scalar SlicingScenario.rsu[0].nic.mac1609_4 TooLittleTime_SCH 3010
scalar SlicingScenario.rsu[0].nic.mac1609_4 TimesIntoBackoff_SCH 8931
scalar SlicingScenario.rsu[0].nic.mac1609_4 SlotsBackoff_SCH 29499
scalar SlicingScenario.rsu[0].nic.mac1609_4 NumInternalContention_SCH 0
scalar SlicingScenario.rsu[0].nic.mac1609_4 RemainingPacketsInEDCA_SCH 0
scalar SlicingScenario.rsu[0].nic.mac1609_4 totalBusyTime_SCH 17.343935

