version 2
run General-5-20190316-16:18:10-4959
attr configname General
attr datetime 20190316-16:18:10
attr experiment General
attr inifile omnetpp.ini
attr iterationvars "$vehicles=0.1, $msgSizeA=1500B, $serviceMsgInterval=0.04s, $msgSizeB=10000B"
attr iterationvarsf vehicles=0.1,msgSizeA=1500B,serviceMsgInterval=0.04s,msgSizeB=10000B-
attr measurement "$vehicles=0.1, $msgSizeA=1500B, $serviceMsgInterval=0.04s, $msgSizeB=10000B"
attr network com.liborio.slicing.SlicingScenario
attr processid 4959
attr repetition 5
attr replication #5
attr resultdir results
attr runnumber 5
attr seedset 5
itervar msgSizeA 1500B
itervar msgSizeB 10000B
itervar serviceMsgInterval 0.04s
itervar vehicles 0.1
param **.debug false
param **.coreDebug false
param *.playgroundSizeX 1200m
param *.playgroundSizeY 1200m
param *.playgroundSizeZ 50m
param *.annotations.draw true
param *.manager.updateInterval 1s
param *.manager.host "\"localhost\""
param *.manager.port 9999
param *.manager.autoShutdown true
param *.manager.launchConfig "xmldoc(\"highway-\"+string(0.1)+\".launchd.xml\")"
param *.connectionManager.sendDirect true
param *.connectionManager.maxInterfDist 2600m
param *.connectionManager.drawMaxIntfDist false
param *.rsu[*].applType "\"RSUApp\""
param *.rsu[*].appl.headerLength "80 bit"
param *.rsu[*].appl.sendBeacons false
param *.rsu[*].appl.dataOnSch true
param *.rsu[*].appl.beaconInterval 1s
param *.rsu[*].appl.beaconUserPriority 7
param *.rsu[*].appl.dataUserPriority 5
param *.rsu[*].appl.entMsgADataLengthBytes 1500B
param *.rsu[*].appl.entMsgAUserPriority 4
param *.rsu[*].appl.entMsgAInterval 0.04s
param *.rsu[*].appl.entMsgBDataLengthBytes 10000B
param *.rsu[*].appl.entMsgBUserPriority 4
param *.rsu[*].appl.entMsgBInterval 0.04s
param *.rsu[*].nic.mac1609_4.useServiceChannel true
param *.rsu[*].nic.mac1609_4.txPower 20mW
param *.rsu[*].nic.mac1609_4.bitrate 6Mbps
param *.rsu[*].nic.phy80211p.sensitivity -90.00dBm
param *.rsu[0].mobility.x 515.0
param *.rsu[0].mobility.y 25.0
param *.rsu[0].mobility.z 3
param *.node[*].applType "\"VehApp\""
param *.node[*].appl.headerLength "80 bit"
param *.node[*].appl.sendBeacons false
param *.node[*].appl.dataOnSch true
param *.node[*].appl.beaconInterval 1s
param *.node[*].appl.wsaInterval 1s
param *.node[*].appl.entMsgADataLengthBits 1500B
param *.node[*].appl.entMsgAUserPriority 4
param *.node[*].appl.entMsgAInterval 0.04s
param *.node[*].appl.entMsgBDataLengthBits 10000B
param *.node[*].appl.entMsgBUserPriority 4
param *.node[*].appl.entMsgBInterval 0.04s
param *.node[*].nic.mac1609_4.useServiceChannel true
param *.node[*].nic.mac1609_4.txPower 20mW
param *.node[*].nic.mac1609_4.bitrate 6Mbps
param *.node[*].nic.phy80211p.sensitivity -90.00dBm
param *.node[*].veinsmobilityType.debug true
param *.node[*].veinsmobility.x 0
param *.node[*].veinsmobility.y 0
param *.node[*].veinsmobility.z 1.895
param *.**.nic.phy80211p.useThermalNoise true
param *.**.nic.phy80211p.thermalNoise -110dBm
param *.**.nic.phy80211p.decider "xmldoc(\"config.xml\")"
param *.**.nic.phy80211p.analogueModels "xmldoc(\"config.xml\")"
param *.**.nic.phy80211p.usePropagationDelay true
param *.**.nic.phy80211p.antenna "xmldoc(\"antenna.xml\", \"/root/Antenna[@id='monopole']\")"
param *.**.nic.phy80211p.collectCollisionStatistics true
param *.**.nic.phy80211p.allowTxDuringRx false

scalar SlicingScenario.node[0].appl txPackets_CCH_13 0
scalar SlicingScenario.node[0].appl rxPackets_CCH_13 0
scalar SlicingScenario.node[0].appl rxNeighborPackets_CCH_13 0
scalar SlicingScenario.node[0].appl meanDelay_CCH_13 0
scalar SlicingScenario.node[0].appl meanJitter_CCH_13 0
scalar SlicingScenario.node[0].appl meanRxPacketSize_CCH_13 0
scalar SlicingScenario.node[0].appl meanTxPacketSize_CCH_13 0
scalar SlicingScenario.node[0].appl meanRxThroughput_CCH_13 0
scalar SlicingScenario.node[0].appl meanTxThroughput_CCH_13 0
scalar SlicingScenario.node[0].appl rxTimeOfService_CCH_13 0
scalar SlicingScenario.node[0].appl txTimeOfService_CCH_13 0
scalar SlicingScenario.node[0].appl txPackets_SCH_40_13 0
scalar SlicingScenario.node[0].appl rxPackets_SCH_40_13 348
scalar SlicingScenario.node[0].appl rxNeighborPackets_SCH_40_13 2090
scalar SlicingScenario.node[0].appl meanDelay_SCH_40_13 27.901954577326
scalar SlicingScenario.node[0].appl meanJitter_SCH_40_13 0.204039066991
scalar SlicingScenario.node[0].appl meanRxPacketSize_SCH_40_13 1510
scalar SlicingScenario.node[0].appl meanTxPacketSize_SCH_40_13 0
scalar SlicingScenario.node[0].appl meanRxThroughput_SCH_40_13 49233.481275612
scalar SlicingScenario.node[0].appl meanTxThroughput_SCH_40_13 0
scalar SlicingScenario.node[0].appl rxTimeOfService_SCH_40_13 85.385796232174
scalar SlicingScenario.node[0].appl txTimeOfService_SCH_40_13 0
scalar SlicingScenario.node[0].nic.phy80211p busyTime 0.36538956521744
scalar SlicingScenario.node[0].nic.phy80211p ncollisions 0
scalar SlicingScenario.node[0].nic.phy80211p UnderSensitivityPackets 1284
scalar SlicingScenario.node[0].nic.mac1609_4 ReceivedUnicastPackets_CCH 0
scalar SlicingScenario.node[0].nic.mac1609_4 ReceivedBroadcasts_CCH 0
scalar SlicingScenario.node[0].nic.mac1609_4 SentPackets_CCH 0
scalar SlicingScenario.node[0].nic.mac1609_4 SentAcknowledgements_CCH 0
scalar SlicingScenario.node[0].nic.mac1609_4 SNIRLostPackets_CCH 0
scalar SlicingScenario.node[0].nic.mac1609_4 RXTXLostPackets_CCH 0
scalar SlicingScenario.node[0].nic.mac1609_4 TotalLostPackets_CCH 0
scalar SlicingScenario.node[0].nic.mac1609_4 DroppedPacketsInMac_CCH 0
scalar SlicingScenario.node[0].nic.mac1609_4 TooLittleTime_CCH 0
scalar SlicingScenario.node[0].nic.mac1609_4 TimesIntoBackoff_CCH 0
scalar SlicingScenario.node[0].nic.mac1609_4 SlotsBackoff_CCH 0
scalar SlicingScenario.node[0].nic.mac1609_4 NumInternalContention_CCH 0
scalar SlicingScenario.node[0].nic.mac1609_4 RemainingPacketsInEDCA_CCH 0
scalar SlicingScenario.node[0].nic.mac1609_4 totalBusyTime_CCH 0
scalar SlicingScenario.node[0].nic.mac1609_4 ReceivedUnicastPackets_SCH 0
scalar SlicingScenario.node[0].nic.mac1609_4 ReceivedBroadcasts_SCH 16962
scalar SlicingScenario.node[0].nic.mac1609_4 SentPackets_SCH 0
scalar SlicingScenario.node[0].nic.mac1609_4 SentAcknowledgements_SCH 0
scalar SlicingScenario.node[0].nic.mac1609_4 SNIRLostPackets_SCH 0
scalar SlicingScenario.node[0].nic.mac1609_4 RXTXLostPackets_SCH 0
scalar SlicingScenario.node[0].nic.mac1609_4 TotalLostPackets_SCH 0
scalar SlicingScenario.node[0].nic.mac1609_4 DroppedPacketsInMac_SCH 0
scalar SlicingScenario.node[0].nic.mac1609_4 TooLittleTime_SCH 0
scalar SlicingScenario.node[0].nic.mac1609_4 TimesIntoBackoff_SCH 0
scalar SlicingScenario.node[0].nic.mac1609_4 SlotsBackoff_SCH 0
scalar SlicingScenario.node[0].nic.mac1609_4 NumInternalContention_SCH 0
scalar SlicingScenario.node[0].nic.mac1609_4 RemainingPacketsInEDCA_SCH 0
scalar SlicingScenario.node[0].nic.mac1609_4 totalBusyTime_SCH 33.61584
scalar SlicingScenario.node[0].veinsmobility startTime 1
scalar SlicingScenario.node[0].veinsmobility totalTime 91
scalar SlicingScenario.node[0].veinsmobility stopTime 93
scalar SlicingScenario.node[0].veinsmobility minSpeed 10.61072140398
scalar SlicingScenario.node[0].veinsmobility maxSpeed 11.100559616243
scalar SlicingScenario.node[0].veinsmobility totalDistance 977.83757678796
scalar SlicingScenario.node[0].veinsmobility totalCO2Emission 157.70354642727
scalar SlicingScenario.node[1].appl txPackets_CCH_19 0
scalar SlicingScenario.node[1].appl rxPackets_CCH_19 0
scalar SlicingScenario.node[1].appl rxNeighborPackets_CCH_19 0
scalar SlicingScenario.node[1].appl meanDelay_CCH_19 0
scalar SlicingScenario.node[1].appl meanJitter_CCH_19 0
scalar SlicingScenario.node[1].appl meanRxPacketSize_CCH_19 0
scalar SlicingScenario.node[1].appl meanTxPacketSize_CCH_19 0
scalar SlicingScenario.node[1].appl meanRxThroughput_CCH_19 0
scalar SlicingScenario.node[1].appl meanTxThroughput_CCH_19 0
scalar SlicingScenario.node[1].appl rxTimeOfService_CCH_19 0
scalar SlicingScenario.node[1].appl txTimeOfService_CCH_19 0
scalar SlicingScenario.node[1].appl txPackets_SCH_41_19 0
scalar SlicingScenario.node[1].appl rxPackets_SCH_41_19 2384
scalar SlicingScenario.node[1].appl rxNeighborPackets_SCH_41_19 12140
scalar SlicingScenario.node[1].appl meanDelay_SCH_41_19 28.443463948805
scalar SlicingScenario.node[1].appl meanJitter_SCH_41_19 0.029763553275
scalar SlicingScenario.node[1].appl meanRxPacketSize_SCH_41_19 1438
scalar SlicingScenario.node[1].appl meanTxPacketSize_SCH_41_19 0
scalar SlicingScenario.node[1].appl meanRxThroughput_SCH_41_19 323205.30112154
scalar SlicingScenario.node[1].appl meanTxThroughput_SCH_41_19 0
scalar SlicingScenario.node[1].appl rxTimeOfService_SCH_41_19 84.895637246004
scalar SlicingScenario.node[1].appl txTimeOfService_SCH_41_19 0
scalar SlicingScenario.node[1].nic.phy80211p busyTime 0.36538956521744
scalar SlicingScenario.node[1].nic.phy80211p ncollisions 0
scalar SlicingScenario.node[1].nic.phy80211p UnderSensitivityPackets 1284
scalar SlicingScenario.node[1].nic.mac1609_4 ReceivedUnicastPackets_CCH 0
scalar SlicingScenario.node[1].nic.mac1609_4 ReceivedBroadcasts_CCH 0
scalar SlicingScenario.node[1].nic.mac1609_4 SentPackets_CCH 0
scalar SlicingScenario.node[1].nic.mac1609_4 SentAcknowledgements_CCH 0
scalar SlicingScenario.node[1].nic.mac1609_4 SNIRLostPackets_CCH 0
scalar SlicingScenario.node[1].nic.mac1609_4 RXTXLostPackets_CCH 0
scalar SlicingScenario.node[1].nic.mac1609_4 TotalLostPackets_CCH 0
scalar SlicingScenario.node[1].nic.mac1609_4 DroppedPacketsInMac_CCH 0
scalar SlicingScenario.node[1].nic.mac1609_4 TooLittleTime_CCH 0
scalar SlicingScenario.node[1].nic.mac1609_4 TimesIntoBackoff_CCH 0
scalar SlicingScenario.node[1].nic.mac1609_4 SlotsBackoff_CCH 0
scalar SlicingScenario.node[1].nic.mac1609_4 NumInternalContention_CCH 0
scalar SlicingScenario.node[1].nic.mac1609_4 RemainingPacketsInEDCA_CCH 0
scalar SlicingScenario.node[1].nic.mac1609_4 totalBusyTime_CCH 0
scalar SlicingScenario.node[1].nic.mac1609_4 ReceivedUnicastPackets_SCH 0
scalar SlicingScenario.node[1].nic.mac1609_4 ReceivedBroadcasts_SCH 16962
scalar SlicingScenario.node[1].nic.mac1609_4 SentPackets_SCH 0
scalar SlicingScenario.node[1].nic.mac1609_4 SentAcknowledgements_SCH 0
scalar SlicingScenario.node[1].nic.mac1609_4 SNIRLostPackets_SCH 0
scalar SlicingScenario.node[1].nic.mac1609_4 RXTXLostPackets_SCH 0
scalar SlicingScenario.node[1].nic.mac1609_4 TotalLostPackets_SCH 0
scalar SlicingScenario.node[1].nic.mac1609_4 DroppedPacketsInMac_SCH 0
scalar SlicingScenario.node[1].nic.mac1609_4 TooLittleTime_SCH 0
scalar SlicingScenario.node[1].nic.mac1609_4 TimesIntoBackoff_SCH 0
scalar SlicingScenario.node[1].nic.mac1609_4 SlotsBackoff_SCH 0
scalar SlicingScenario.node[1].nic.mac1609_4 NumInternalContention_SCH 0
scalar SlicingScenario.node[1].nic.mac1609_4 RemainingPacketsInEDCA_SCH 0
scalar SlicingScenario.node[1].nic.mac1609_4 totalBusyTime_SCH 33.61584
scalar SlicingScenario.node[1].veinsmobility startTime 1
scalar SlicingScenario.node[1].veinsmobility totalTime 91
scalar SlicingScenario.node[1].veinsmobility stopTime 93
scalar SlicingScenario.node[1].veinsmobility minSpeed 10.620909918346
scalar SlicingScenario.node[1].veinsmobility maxSpeed 11.10640593084
scalar SlicingScenario.node[1].veinsmobility totalDistance 981.85647320679
scalar SlicingScenario.node[1].veinsmobility totalCO2Emission 158.56256606902
scalar SlicingScenario.node[2].appl txPackets_CCH_25 0
scalar SlicingScenario.node[2].appl rxPackets_CCH_25 0
scalar SlicingScenario.node[2].appl rxNeighborPackets_CCH_25 0
scalar SlicingScenario.node[2].appl meanDelay_CCH_25 0
scalar SlicingScenario.node[2].appl meanJitter_CCH_25 0
scalar SlicingScenario.node[2].appl meanRxPacketSize_CCH_25 0
scalar SlicingScenario.node[2].appl meanTxPacketSize_CCH_25 0
scalar SlicingScenario.node[2].appl meanRxThroughput_CCH_25 0
scalar SlicingScenario.node[2].appl meanTxThroughput_CCH_25 0
scalar SlicingScenario.node[2].appl rxTimeOfService_CCH_25 0
scalar SlicingScenario.node[2].appl txTimeOfService_CCH_25 0
scalar SlicingScenario.node[2].appl txPackets_SCH_40_25 0
scalar SlicingScenario.node[2].appl rxPackets_SCH_40_25 351
scalar SlicingScenario.node[2].appl rxNeighborPackets_SCH_40_25 2087
scalar SlicingScenario.node[2].appl meanDelay_SCH_40_25 27.593653558002
scalar SlicingScenario.node[2].appl meanJitter_SCH_40_25 0.202024306333
scalar SlicingScenario.node[2].appl meanRxPacketSize_SCH_40_25 1510
scalar SlicingScenario.node[2].appl meanTxPacketSize_SCH_40_25 0
scalar SlicingScenario.node[2].appl meanRxThroughput_SCH_40_25 49711.221219937
scalar SlicingScenario.node[2].appl meanTxThroughput_SCH_40_25 0
scalar SlicingScenario.node[2].appl rxTimeOfService_SCH_40_25 85.294223234642
scalar SlicingScenario.node[2].appl txTimeOfService_SCH_40_25 0
scalar SlicingScenario.node[2].nic.phy80211p busyTime 0.36538956521744
scalar SlicingScenario.node[2].nic.phy80211p ncollisions 0
scalar SlicingScenario.node[2].nic.phy80211p UnderSensitivityPackets 1284
scalar SlicingScenario.node[2].nic.mac1609_4 ReceivedUnicastPackets_CCH 0
scalar SlicingScenario.node[2].nic.mac1609_4 ReceivedBroadcasts_CCH 0
scalar SlicingScenario.node[2].nic.mac1609_4 SentPackets_CCH 0
scalar SlicingScenario.node[2].nic.mac1609_4 SentAcknowledgements_CCH 0
scalar SlicingScenario.node[2].nic.mac1609_4 SNIRLostPackets_CCH 0
scalar SlicingScenario.node[2].nic.mac1609_4 RXTXLostPackets_CCH 0
scalar SlicingScenario.node[2].nic.mac1609_4 TotalLostPackets_CCH 0
scalar SlicingScenario.node[2].nic.mac1609_4 DroppedPacketsInMac_CCH 0
scalar SlicingScenario.node[2].nic.mac1609_4 TooLittleTime_CCH 0
scalar SlicingScenario.node[2].nic.mac1609_4 TimesIntoBackoff_CCH 0
scalar SlicingScenario.node[2].nic.mac1609_4 SlotsBackoff_CCH 0
scalar SlicingScenario.node[2].nic.mac1609_4 NumInternalContention_CCH 0
scalar SlicingScenario.node[2].nic.mac1609_4 RemainingPacketsInEDCA_CCH 0
scalar SlicingScenario.node[2].nic.mac1609_4 totalBusyTime_CCH 0
scalar SlicingScenario.node[2].nic.mac1609_4 ReceivedUnicastPackets_SCH 0
scalar SlicingScenario.node[2].nic.mac1609_4 ReceivedBroadcasts_SCH 16962
scalar SlicingScenario.node[2].nic.mac1609_4 SentPackets_SCH 0
scalar SlicingScenario.node[2].nic.mac1609_4 SentAcknowledgements_SCH 0
scalar SlicingScenario.node[2].nic.mac1609_4 SNIRLostPackets_SCH 0
scalar SlicingScenario.node[2].nic.mac1609_4 RXTXLostPackets_SCH 0
scalar SlicingScenario.node[2].nic.mac1609_4 TotalLostPackets_SCH 0
scalar SlicingScenario.node[2].nic.mac1609_4 DroppedPacketsInMac_SCH 0
scalar SlicingScenario.node[2].nic.mac1609_4 TooLittleTime_SCH 0
scalar SlicingScenario.node[2].nic.mac1609_4 TimesIntoBackoff_SCH 0
scalar SlicingScenario.node[2].nic.mac1609_4 SlotsBackoff_SCH 0
scalar SlicingScenario.node[2].nic.mac1609_4 NumInternalContention_SCH 0
scalar SlicingScenario.node[2].nic.mac1609_4 RemainingPacketsInEDCA_SCH 0
scalar SlicingScenario.node[2].nic.mac1609_4 totalBusyTime_SCH 33.61584
scalar SlicingScenario.node[2].veinsmobility startTime 1
scalar SlicingScenario.node[2].veinsmobility totalTime 91
scalar SlicingScenario.node[2].veinsmobility stopTime 93
scalar SlicingScenario.node[2].veinsmobility minSpeed 10.611647947938
scalar SlicingScenario.node[2].veinsmobility maxSpeed 11.10843978975
scalar SlicingScenario.node[2].veinsmobility totalDistance 979.12542859464
scalar SlicingScenario.node[2].veinsmobility totalCO2Emission 158.23920765507
scalar SlicingScenario.node[3].appl txPackets_CCH_31 0
scalar SlicingScenario.node[3].appl rxPackets_CCH_31 0
scalar SlicingScenario.node[3].appl rxNeighborPackets_CCH_31 0
scalar SlicingScenario.node[3].appl meanDelay_CCH_31 0
scalar SlicingScenario.node[3].appl meanJitter_CCH_31 0
scalar SlicingScenario.node[3].appl meanRxPacketSize_CCH_31 0
scalar SlicingScenario.node[3].appl meanTxPacketSize_CCH_31 0
scalar SlicingScenario.node[3].appl meanRxThroughput_CCH_31 0
scalar SlicingScenario.node[3].appl meanTxThroughput_CCH_31 0
scalar SlicingScenario.node[3].appl rxTimeOfService_CCH_31 0
scalar SlicingScenario.node[3].appl txTimeOfService_CCH_31 0
scalar SlicingScenario.node[3].appl txPackets_SCH_41_31 0
scalar SlicingScenario.node[3].appl rxPackets_SCH_41_31 2404
scalar SlicingScenario.node[3].appl rxNeighborPackets_SCH_41_31 12120
scalar SlicingScenario.node[3].appl meanDelay_SCH_41_31 28.268055693773
scalar SlicingScenario.node[3].appl meanJitter_SCH_41_31 0.029633064563
scalar SlicingScenario.node[3].appl meanRxPacketSize_SCH_41_31 1438
scalar SlicingScenario.node[3].appl meanTxPacketSize_SCH_41_31 0
scalar SlicingScenario.node[3].appl meanRxThroughput_SCH_41_31 324689.67866016
scalar SlicingScenario.node[3].appl meanTxThroughput_SCH_41_31 0
scalar SlicingScenario.node[3].appl rxTimeOfService_SCH_41_31 85.214658236672
scalar SlicingScenario.node[3].appl txTimeOfService_SCH_41_31 0
scalar SlicingScenario.node[3].nic.phy80211p busyTime 0.36538956521744
scalar SlicingScenario.node[3].nic.phy80211p ncollisions 0
scalar SlicingScenario.node[3].nic.phy80211p UnderSensitivityPackets 1284
scalar SlicingScenario.node[3].nic.mac1609_4 ReceivedUnicastPackets_CCH 0
scalar SlicingScenario.node[3].nic.mac1609_4 ReceivedBroadcasts_CCH 0
scalar SlicingScenario.node[3].nic.mac1609_4 SentPackets_CCH 0
scalar SlicingScenario.node[3].nic.mac1609_4 SentAcknowledgements_CCH 0
scalar SlicingScenario.node[3].nic.mac1609_4 SNIRLostPackets_CCH 0
scalar SlicingScenario.node[3].nic.mac1609_4 RXTXLostPackets_CCH 0
scalar SlicingScenario.node[3].nic.mac1609_4 TotalLostPackets_CCH 0
scalar SlicingScenario.node[3].nic.mac1609_4 DroppedPacketsInMac_CCH 0
scalar SlicingScenario.node[3].nic.mac1609_4 TooLittleTime_CCH 0
scalar SlicingScenario.node[3].nic.mac1609_4 TimesIntoBackoff_CCH 0
scalar SlicingScenario.node[3].nic.mac1609_4 SlotsBackoff_CCH 0
scalar SlicingScenario.node[3].nic.mac1609_4 NumInternalContention_CCH 0
scalar SlicingScenario.node[3].nic.mac1609_4 RemainingPacketsInEDCA_CCH 0
scalar SlicingScenario.node[3].nic.mac1609_4 totalBusyTime_CCH 0
scalar SlicingScenario.node[3].nic.mac1609_4 ReceivedUnicastPackets_SCH 0
scalar SlicingScenario.node[3].nic.mac1609_4 ReceivedBroadcasts_SCH 16962
scalar SlicingScenario.node[3].nic.mac1609_4 SentPackets_SCH 0
scalar SlicingScenario.node[3].nic.mac1609_4 SentAcknowledgements_SCH 0
scalar SlicingScenario.node[3].nic.mac1609_4 SNIRLostPackets_SCH 0
scalar SlicingScenario.node[3].nic.mac1609_4 RXTXLostPackets_SCH 0
scalar SlicingScenario.node[3].nic.mac1609_4 TotalLostPackets_SCH 0
scalar SlicingScenario.node[3].nic.mac1609_4 DroppedPacketsInMac_SCH 0
scalar SlicingScenario.node[3].nic.mac1609_4 TooLittleTime_SCH 0
scalar SlicingScenario.node[3].nic.mac1609_4 TimesIntoBackoff_SCH 0
scalar SlicingScenario.node[3].nic.mac1609_4 SlotsBackoff_SCH 0
scalar SlicingScenario.node[3].nic.mac1609_4 NumInternalContention_SCH 0
scalar SlicingScenario.node[3].nic.mac1609_4 RemainingPacketsInEDCA_SCH 0
scalar SlicingScenario.node[3].nic.mac1609_4 totalBusyTime_SCH 33.61584
scalar SlicingScenario.node[3].veinsmobility startTime 1
scalar SlicingScenario.node[3].veinsmobility totalTime 91
scalar SlicingScenario.node[3].veinsmobility stopTime 93
scalar SlicingScenario.node[3].veinsmobility minSpeed 10.621708776467
scalar SlicingScenario.node[3].veinsmobility maxSpeed 11.109460385181
scalar SlicingScenario.node[3].veinsmobility totalDistance 979.35421156952
scalar SlicingScenario.node[3].veinsmobility totalCO2Emission 158.3803424892
scalar SlicingScenario.node[6].appl txPackets_CCH_49 0
scalar SlicingScenario.node[6].appl rxPackets_CCH_49 0
scalar SlicingScenario.node[6].appl rxNeighborPackets_CCH_49 0
scalar SlicingScenario.node[6].appl meanDelay_CCH_49 0
scalar SlicingScenario.node[6].appl meanJitter_CCH_49 0
scalar SlicingScenario.node[6].appl meanRxPacketSize_CCH_49 0
scalar SlicingScenario.node[6].appl meanTxPacketSize_CCH_49 0
scalar SlicingScenario.node[6].appl meanRxThroughput_CCH_49 0
scalar SlicingScenario.node[6].appl meanTxThroughput_CCH_49 0
scalar SlicingScenario.node[6].appl rxTimeOfService_CCH_49 0
scalar SlicingScenario.node[6].appl txTimeOfService_CCH_49 0
scalar SlicingScenario.node[6].appl txPackets_SCH_41_49 0
scalar SlicingScenario.node[6].appl rxPackets_SCH_41_49 2216
scalar SlicingScenario.node[6].appl rxNeighborPackets_SCH_41_49 12663
scalar SlicingScenario.node[6].appl meanDelay_SCH_41_49 31.867785340663
scalar SlicingScenario.node[6].appl meanJitter_SCH_41_49 0.03255994093
scalar SlicingScenario.node[6].appl meanRxPacketSize_SCH_41_49 1438
scalar SlicingScenario.node[6].appl meanTxPacketSize_SCH_41_49 0
scalar SlicingScenario.node[6].appl meanRxThroughput_SCH_41_49 301512.2272463
scalar SlicingScenario.node[6].appl meanTxThroughput_SCH_41_49 0
scalar SlicingScenario.node[6].appl rxTimeOfService_SCH_41_49 84.59119629389
scalar SlicingScenario.node[6].appl txTimeOfService_SCH_41_49 0
scalar SlicingScenario.node[6].nic.phy80211p busyTime 0.37048000000004
scalar SlicingScenario.node[6].nic.phy80211p ncollisions 0
scalar SlicingScenario.node[6].nic.phy80211p UnderSensitivityPackets 1283
scalar SlicingScenario.node[6].nic.mac1609_4 ReceivedUnicastPackets_CCH 0
scalar SlicingScenario.node[6].nic.mac1609_4 ReceivedBroadcasts_CCH 0
scalar SlicingScenario.node[6].nic.mac1609_4 SentPackets_CCH 0
scalar SlicingScenario.node[6].nic.mac1609_4 SentAcknowledgements_CCH 0
scalar SlicingScenario.node[6].nic.mac1609_4 SNIRLostPackets_CCH 0
scalar SlicingScenario.node[6].nic.mac1609_4 RXTXLostPackets_CCH 0
scalar SlicingScenario.node[6].nic.mac1609_4 TotalLostPackets_CCH 0
scalar SlicingScenario.node[6].nic.mac1609_4 DroppedPacketsInMac_CCH 0
scalar SlicingScenario.node[6].nic.mac1609_4 TooLittleTime_CCH 0
scalar SlicingScenario.node[6].nic.mac1609_4 TimesIntoBackoff_CCH 0
scalar SlicingScenario.node[6].nic.mac1609_4 SlotsBackoff_CCH 0
scalar SlicingScenario.node[6].nic.mac1609_4 NumInternalContention_CCH 0
scalar SlicingScenario.node[6].nic.mac1609_4 RemainingPacketsInEDCA_CCH 0
scalar SlicingScenario.node[6].nic.mac1609_4 totalBusyTime_CCH 0
scalar SlicingScenario.node[6].nic.mac1609_4 ReceivedUnicastPackets_SCH 0
scalar SlicingScenario.node[6].nic.mac1609_4 ReceivedBroadcasts_SCH 17385
scalar SlicingScenario.node[6].nic.mac1609_4 SentPackets_SCH 0
scalar SlicingScenario.node[6].nic.mac1609_4 SentAcknowledgements_SCH 0
scalar SlicingScenario.node[6].nic.mac1609_4 SNIRLostPackets_SCH 0
scalar SlicingScenario.node[6].nic.mac1609_4 RXTXLostPackets_SCH 0
scalar SlicingScenario.node[6].nic.mac1609_4 TotalLostPackets_SCH 0
scalar SlicingScenario.node[6].nic.mac1609_4 DroppedPacketsInMac_SCH 0
scalar SlicingScenario.node[6].nic.mac1609_4 TooLittleTime_SCH 0
scalar SlicingScenario.node[6].nic.mac1609_4 TimesIntoBackoff_SCH 0
scalar SlicingScenario.node[6].nic.mac1609_4 SlotsBackoff_SCH 0
scalar SlicingScenario.node[6].nic.mac1609_4 NumInternalContention_SCH 0
scalar SlicingScenario.node[6].nic.mac1609_4 RemainingPacketsInEDCA_SCH 0
scalar SlicingScenario.node[6].nic.mac1609_4 totalBusyTime_SCH 34.45464
scalar SlicingScenario.node[6].veinsmobility startTime 2
scalar SlicingScenario.node[6].veinsmobility totalTime 92
scalar SlicingScenario.node[6].veinsmobility stopTime 95
scalar SlicingScenario.node[6].veinsmobility minSpeed 8.1036147288843
scalar SlicingScenario.node[6].veinsmobility maxSpeed 11.106626539156
scalar SlicingScenario.node[6].veinsmobility totalDistance 981.79925669443
scalar SlicingScenario.node[6].veinsmobility totalCO2Emission 167.73968772738
scalar SlicingScenario.node[4].appl txPackets_CCH_37 0
scalar SlicingScenario.node[4].appl rxPackets_CCH_37 0
scalar SlicingScenario.node[4].appl rxNeighborPackets_CCH_37 0
scalar SlicingScenario.node[4].appl meanDelay_CCH_37 0
scalar SlicingScenario.node[4].appl meanJitter_CCH_37 0
scalar SlicingScenario.node[4].appl meanRxPacketSize_CCH_37 0
scalar SlicingScenario.node[4].appl meanTxPacketSize_CCH_37 0
scalar SlicingScenario.node[4].appl meanRxThroughput_CCH_37 0
scalar SlicingScenario.node[4].appl meanTxThroughput_CCH_37 0
scalar SlicingScenario.node[4].appl rxTimeOfService_CCH_37 0
scalar SlicingScenario.node[4].appl txTimeOfService_CCH_37 0
scalar SlicingScenario.node[4].appl txPackets_SCH_41_37 0
scalar SlicingScenario.node[4].appl rxPackets_SCH_41_37 2191
scalar SlicingScenario.node[4].appl rxNeighborPackets_SCH_41_37 12688
scalar SlicingScenario.node[4].appl meanDelay_SCH_41_37 32.162074400199
scalar SlicingScenario.node[4].appl meanJitter_SCH_41_37 0.032930207745
scalar SlicingScenario.node[4].appl meanRxPacketSize_SCH_41_37 1438
scalar SlicingScenario.node[4].appl meanTxPacketSize_SCH_41_37 0
scalar SlicingScenario.node[4].appl meanRxThroughput_SCH_41_37 299387.9446788
scalar SlicingScenario.node[4].appl meanTxThroughput_SCH_41_37 0
scalar SlicingScenario.node[4].appl rxTimeOfService_SCH_41_37 84.222763301483
scalar SlicingScenario.node[4].appl txTimeOfService_SCH_41_37 0
scalar SlicingScenario.node[4].nic.phy80211p busyTime 0.37048000000004
scalar SlicingScenario.node[4].nic.phy80211p ncollisions 0
scalar SlicingScenario.node[4].nic.phy80211p UnderSensitivityPackets 1283
scalar SlicingScenario.node[4].nic.mac1609_4 ReceivedUnicastPackets_CCH 0
scalar SlicingScenario.node[4].nic.mac1609_4 ReceivedBroadcasts_CCH 103
scalar SlicingScenario.node[4].nic.mac1609_4 SentPackets_CCH 0
scalar SlicingScenario.node[4].nic.mac1609_4 SentAcknowledgements_CCH 0
scalar SlicingScenario.node[4].nic.mac1609_4 SNIRLostPackets_CCH 0
scalar SlicingScenario.node[4].nic.mac1609_4 RXTXLostPackets_CCH 0
scalar SlicingScenario.node[4].nic.mac1609_4 TotalLostPackets_CCH 0
scalar SlicingScenario.node[4].nic.mac1609_4 DroppedPacketsInMac_CCH 0
scalar SlicingScenario.node[4].nic.mac1609_4 TooLittleTime_CCH 0
scalar SlicingScenario.node[4].nic.mac1609_4 TimesIntoBackoff_CCH 0
scalar SlicingScenario.node[4].nic.mac1609_4 SlotsBackoff_CCH 0
scalar SlicingScenario.node[4].nic.mac1609_4 NumInternalContention_CCH 0
scalar SlicingScenario.node[4].nic.mac1609_4 RemainingPacketsInEDCA_CCH 0
scalar SlicingScenario.node[4].nic.mac1609_4 totalBusyTime_CCH 0.388377406596
scalar SlicingScenario.node[4].nic.mac1609_4 ReceivedUnicastPackets_SCH 0
scalar SlicingScenario.node[4].nic.mac1609_4 ReceivedBroadcasts_SCH 17282
scalar SlicingScenario.node[4].nic.mac1609_4 SentPackets_SCH 0
scalar SlicingScenario.node[4].nic.mac1609_4 SentAcknowledgements_SCH 0
scalar SlicingScenario.node[4].nic.mac1609_4 SNIRLostPackets_SCH 0
scalar SlicingScenario.node[4].nic.mac1609_4 RXTXLostPackets_SCH 0
scalar SlicingScenario.node[4].nic.mac1609_4 TotalLostPackets_SCH 0
scalar SlicingScenario.node[4].nic.mac1609_4 DroppedPacketsInMac_SCH 0
scalar SlicingScenario.node[4].nic.mac1609_4 TooLittleTime_SCH 0
scalar SlicingScenario.node[4].nic.mac1609_4 TimesIntoBackoff_SCH 0
scalar SlicingScenario.node[4].nic.mac1609_4 SlotsBackoff_SCH 0
scalar SlicingScenario.node[4].nic.mac1609_4 NumInternalContention_SCH 0
scalar SlicingScenario.node[4].nic.mac1609_4 RemainingPacketsInEDCA_SCH 0
scalar SlicingScenario.node[4].nic.mac1609_4 totalBusyTime_SCH 34.258848
scalar SlicingScenario.node[4].veinsmobility startTime 2
scalar SlicingScenario.node[4].veinsmobility totalTime 92
scalar SlicingScenario.node[4].veinsmobility stopTime 95
scalar SlicingScenario.node[4].veinsmobility minSpeed 8.307399865401
scalar SlicingScenario.node[4].veinsmobility maxSpeed 11.109745078385
scalar SlicingScenario.node[4].veinsmobility totalDistance 983.37487070692
scalar SlicingScenario.node[4].veinsmobility totalCO2Emission 166.34614877039
scalar SlicingScenario.node[7].appl txPackets_CCH_55 0
scalar SlicingScenario.node[7].appl rxPackets_CCH_55 0
scalar SlicingScenario.node[7].appl rxNeighborPackets_CCH_55 0
scalar SlicingScenario.node[7].appl meanDelay_CCH_55 0
scalar SlicingScenario.node[7].appl meanJitter_CCH_55 0
scalar SlicingScenario.node[7].appl meanRxPacketSize_CCH_55 0
scalar SlicingScenario.node[7].appl meanTxPacketSize_CCH_55 0
scalar SlicingScenario.node[7].appl meanRxThroughput_CCH_55 0
scalar SlicingScenario.node[7].appl meanTxThroughput_CCH_55 0
scalar SlicingScenario.node[7].appl rxTimeOfService_CCH_55 0
scalar SlicingScenario.node[7].appl txTimeOfService_CCH_55 0
scalar SlicingScenario.node[7].appl txPackets_SCH_41_55 0
scalar SlicingScenario.node[7].appl rxPackets_SCH_41_55 2065
scalar SlicingScenario.node[7].appl rxNeighborPackets_SCH_41_55 12814
scalar SlicingScenario.node[7].appl meanDelay_SCH_41_55 34.111149012381
scalar SlicingScenario.node[7].appl meanJitter_SCH_41_55 0.035011781376
scalar SlicingScenario.node[7].appl meanRxPacketSize_SCH_41_55 1438
scalar SlicingScenario.node[7].appl meanTxPacketSize_SCH_41_55 0
scalar SlicingScenario.node[7].appl meanRxThroughput_SCH_41_55 290899.57837104
scalar SlicingScenario.node[7].appl meanTxThroughput_SCH_41_55 0
scalar SlicingScenario.node[7].appl rxTimeOfService_SCH_41_55 81.695546391227
scalar SlicingScenario.node[7].appl txTimeOfService_SCH_41_55 0
scalar SlicingScenario.node[7].nic.phy80211p busyTime 0.37048000000004
scalar SlicingScenario.node[7].nic.phy80211p ncollisions 0
scalar SlicingScenario.node[7].nic.phy80211p UnderSensitivityPackets 1283
scalar SlicingScenario.node[7].nic.mac1609_4 ReceivedUnicastPackets_CCH 0
scalar SlicingScenario.node[7].nic.mac1609_4 ReceivedBroadcasts_CCH 0
scalar SlicingScenario.node[7].nic.mac1609_4 SentPackets_CCH 0
scalar SlicingScenario.node[7].nic.mac1609_4 SentAcknowledgements_CCH 0
scalar SlicingScenario.node[7].nic.mac1609_4 SNIRLostPackets_CCH 0
scalar SlicingScenario.node[7].nic.mac1609_4 RXTXLostPackets_CCH 0
scalar SlicingScenario.node[7].nic.mac1609_4 TotalLostPackets_CCH 0
scalar SlicingScenario.node[7].nic.mac1609_4 DroppedPacketsInMac_CCH 0
scalar SlicingScenario.node[7].nic.mac1609_4 TooLittleTime_CCH 0
scalar SlicingScenario.node[7].nic.mac1609_4 TimesIntoBackoff_CCH 0
scalar SlicingScenario.node[7].nic.mac1609_4 SlotsBackoff_CCH 0
scalar SlicingScenario.node[7].nic.mac1609_4 NumInternalContention_CCH 0
scalar SlicingScenario.node[7].nic.mac1609_4 RemainingPacketsInEDCA_CCH 0
scalar SlicingScenario.node[7].nic.mac1609_4 totalBusyTime_CCH 0
scalar SlicingScenario.node[7].nic.mac1609_4 ReceivedUnicastPackets_SCH 0
scalar SlicingScenario.node[7].nic.mac1609_4 ReceivedBroadcasts_SCH 17385
scalar SlicingScenario.node[7].nic.mac1609_4 SentPackets_SCH 0
scalar SlicingScenario.node[7].nic.mac1609_4 SentAcknowledgements_SCH 0
scalar SlicingScenario.node[7].nic.mac1609_4 SNIRLostPackets_SCH 0
scalar SlicingScenario.node[7].nic.mac1609_4 RXTXLostPackets_SCH 0
scalar SlicingScenario.node[7].nic.mac1609_4 TotalLostPackets_SCH 0
scalar SlicingScenario.node[7].nic.mac1609_4 DroppedPacketsInMac_SCH 0
scalar SlicingScenario.node[7].nic.mac1609_4 TooLittleTime_SCH 0
scalar SlicingScenario.node[7].nic.mac1609_4 TimesIntoBackoff_SCH 0
scalar SlicingScenario.node[7].nic.mac1609_4 SlotsBackoff_SCH 0
scalar SlicingScenario.node[7].nic.mac1609_4 NumInternalContention_SCH 0
scalar SlicingScenario.node[7].nic.mac1609_4 RemainingPacketsInEDCA_SCH 0
scalar SlicingScenario.node[7].nic.mac1609_4 totalBusyTime_SCH 34.45464
scalar SlicingScenario.node[7].veinsmobility startTime 2
scalar SlicingScenario.node[7].veinsmobility totalTime 92
scalar SlicingScenario.node[7].veinsmobility stopTime 95
scalar SlicingScenario.node[7].veinsmobility minSpeed 7.6511175687057
scalar SlicingScenario.node[7].veinsmobility maxSpeed 11.10600657681
scalar SlicingScenario.node[7].veinsmobility totalDistance 980.64846571956
scalar SlicingScenario.node[7].veinsmobility totalCO2Emission 168.31853209611
scalar SlicingScenario.node[5].appl txPackets_CCH_43 0
scalar SlicingScenario.node[5].appl rxPackets_CCH_43 0
scalar SlicingScenario.node[5].appl rxNeighborPackets_CCH_43 0
scalar SlicingScenario.node[5].appl meanDelay_CCH_43 0
scalar SlicingScenario.node[5].appl meanJitter_CCH_43 0
scalar SlicingScenario.node[5].appl meanRxPacketSize_CCH_43 0
scalar SlicingScenario.node[5].appl meanTxPacketSize_CCH_43 0
scalar SlicingScenario.node[5].appl meanRxThroughput_CCH_43 0
scalar SlicingScenario.node[5].appl meanTxThroughput_CCH_43 0
scalar SlicingScenario.node[5].appl rxTimeOfService_CCH_43 0
scalar SlicingScenario.node[5].appl txTimeOfService_CCH_43 0
scalar SlicingScenario.node[5].appl txPackets_SCH_40_43 0
scalar SlicingScenario.node[5].appl rxPackets_SCH_40_43 292
scalar SlicingScenario.node[5].appl rxNeighborPackets_SCH_40_43 2214
scalar SlicingScenario.node[5].appl meanDelay_SCH_40_43 34.444458249145
scalar SlicingScenario.node[5].appl meanJitter_SCH_40_43 0.248337227959
scalar SlicingScenario.node[5].appl meanRxPacketSize_SCH_40_43 1510
scalar SlicingScenario.node[5].appl meanTxPacketSize_SCH_40_43 0
scalar SlicingScenario.node[5].appl meanRxThroughput_SCH_40_43 43454.029448922
scalar SlicingScenario.node[5].appl meanTxThroughput_SCH_40_43 0
scalar SlicingScenario.node[5].appl rxTimeOfService_SCH_40_43 81.174520400834
scalar SlicingScenario.node[5].appl txTimeOfService_SCH_40_43 0
scalar SlicingScenario.node[5].nic.phy80211p busyTime 0.37048000000004
scalar SlicingScenario.node[5].nic.phy80211p ncollisions 0
scalar SlicingScenario.node[5].nic.phy80211p UnderSensitivityPackets 1283
scalar SlicingScenario.node[5].nic.mac1609_4 ReceivedUnicastPackets_CCH 0
scalar SlicingScenario.node[5].nic.mac1609_4 ReceivedBroadcasts_CCH 24
scalar SlicingScenario.node[5].nic.mac1609_4 SentPackets_CCH 0
scalar SlicingScenario.node[5].nic.mac1609_4 SentAcknowledgements_CCH 0
scalar SlicingScenario.node[5].nic.mac1609_4 SNIRLostPackets_CCH 0
scalar SlicingScenario.node[5].nic.mac1609_4 RXTXLostPackets_CCH 0
scalar SlicingScenario.node[5].nic.mac1609_4 TotalLostPackets_CCH 0
scalar SlicingScenario.node[5].nic.mac1609_4 DroppedPacketsInMac_CCH 0
scalar SlicingScenario.node[5].nic.mac1609_4 TooLittleTime_CCH 0
scalar SlicingScenario.node[5].nic.mac1609_4 TimesIntoBackoff_CCH 0
scalar SlicingScenario.node[5].nic.mac1609_4 SlotsBackoff_CCH 0
scalar SlicingScenario.node[5].nic.mac1609_4 NumInternalContention_CCH 0
scalar SlicingScenario.node[5].nic.mac1609_4 RemainingPacketsInEDCA_CCH 0
scalar SlicingScenario.node[5].nic.mac1609_4 totalBusyTime_CCH 0.092167846123
scalar SlicingScenario.node[5].nic.mac1609_4 ReceivedUnicastPackets_SCH 0
scalar SlicingScenario.node[5].nic.mac1609_4 ReceivedBroadcasts_SCH 17361
scalar SlicingScenario.node[5].nic.mac1609_4 SentPackets_SCH 0
scalar SlicingScenario.node[5].nic.mac1609_4 SentAcknowledgements_SCH 0
scalar SlicingScenario.node[5].nic.mac1609_4 SNIRLostPackets_SCH 0
scalar SlicingScenario.node[5].nic.mac1609_4 RXTXLostPackets_SCH 0
scalar SlicingScenario.node[5].nic.mac1609_4 TotalLostPackets_SCH 0
scalar SlicingScenario.node[5].nic.mac1609_4 DroppedPacketsInMac_SCH 0
scalar SlicingScenario.node[5].nic.mac1609_4 TooLittleTime_SCH 0
scalar SlicingScenario.node[5].nic.mac1609_4 TimesIntoBackoff_SCH 0
scalar SlicingScenario.node[5].nic.mac1609_4 SlotsBackoff_SCH 0
scalar SlicingScenario.node[5].nic.mac1609_4 NumInternalContention_SCH 0
scalar SlicingScenario.node[5].nic.mac1609_4 RemainingPacketsInEDCA_SCH 0
scalar SlicingScenario.node[5].nic.mac1609_4 totalBusyTime_SCH 34.408464
scalar SlicingScenario.node[5].veinsmobility startTime 2
scalar SlicingScenario.node[5].veinsmobility totalTime 92
scalar SlicingScenario.node[5].veinsmobility stopTime 95
scalar SlicingScenario.node[5].veinsmobility minSpeed 8.1370588241126
scalar SlicingScenario.node[5].veinsmobility maxSpeed 11.093892756281
scalar SlicingScenario.node[5].veinsmobility totalDistance 981.70021573285
scalar SlicingScenario.node[5].veinsmobility totalCO2Emission 166.53859562173
scalar SlicingScenario.node[10].appl txPackets_CCH_73 0
scalar SlicingScenario.node[10].appl rxPackets_CCH_73 0
scalar SlicingScenario.node[10].appl rxNeighborPackets_CCH_73 0
scalar SlicingScenario.node[10].appl meanDelay_CCH_73 0
scalar SlicingScenario.node[10].appl meanJitter_CCH_73 0
scalar SlicingScenario.node[10].appl meanRxPacketSize_CCH_73 0
scalar SlicingScenario.node[10].appl meanTxPacketSize_CCH_73 0
scalar SlicingScenario.node[10].appl meanRxThroughput_CCH_73 0
scalar SlicingScenario.node[10].appl meanTxThroughput_CCH_73 0
scalar SlicingScenario.node[10].appl rxTimeOfService_CCH_73 0
scalar SlicingScenario.node[10].appl txTimeOfService_CCH_73 0
scalar SlicingScenario.node[10].appl txPackets_SCH_40_73 0
scalar SlicingScenario.node[10].appl rxPackets_SCH_40_73 265
scalar SlicingScenario.node[10].appl rxNeighborPackets_SCH_40_73 2235
scalar SlicingScenario.node[10].appl meanDelay_SCH_40_73 37.94855555444
scalar SlicingScenario.node[10].appl meanJitter_SCH_40_73 0.279770998768
scalar SlicingScenario.node[10].appl meanRxPacketSize_SCH_40_73 1510
scalar SlicingScenario.node[10].appl meanTxPacketSize_SCH_40_73 0
scalar SlicingScenario.node[10].appl meanRxThroughput_SCH_40_73 40725.568795417
scalar SlicingScenario.node[10].appl meanTxThroughput_SCH_40_73 0
scalar SlicingScenario.node[10].appl rxTimeOfService_SCH_40_73 78.604181468431
scalar SlicingScenario.node[10].appl txTimeOfService_SCH_40_73 0
scalar SlicingScenario.node[10].nic.phy80211p busyTime 0.36644374468089
scalar SlicingScenario.node[10].nic.phy80211p ncollisions 0
scalar SlicingScenario.node[10].nic.phy80211p UnderSensitivityPackets 1712
scalar SlicingScenario.node[10].nic.mac1609_4 ReceivedUnicastPackets_CCH 0
scalar SlicingScenario.node[10].nic.mac1609_4 ReceivedBroadcasts_CCH 0
scalar SlicingScenario.node[10].nic.mac1609_4 SentPackets_CCH 0
scalar SlicingScenario.node[10].nic.mac1609_4 SentAcknowledgements_CCH 0
scalar SlicingScenario.node[10].nic.mac1609_4 SNIRLostPackets_CCH 0
scalar SlicingScenario.node[10].nic.mac1609_4 RXTXLostPackets_CCH 0
scalar SlicingScenario.node[10].nic.mac1609_4 TotalLostPackets_CCH 0
scalar SlicingScenario.node[10].nic.mac1609_4 DroppedPacketsInMac_CCH 0
scalar SlicingScenario.node[10].nic.mac1609_4 TooLittleTime_CCH 0
scalar SlicingScenario.node[10].nic.mac1609_4 TimesIntoBackoff_CCH 0
scalar SlicingScenario.node[10].nic.mac1609_4 SlotsBackoff_CCH 0
scalar SlicingScenario.node[10].nic.mac1609_4 NumInternalContention_CCH 0
scalar SlicingScenario.node[10].nic.mac1609_4 RemainingPacketsInEDCA_CCH 0
scalar SlicingScenario.node[10].nic.mac1609_4 totalBusyTime_CCH 0
scalar SlicingScenario.node[10].nic.mac1609_4 ReceivedUnicastPackets_SCH 0
scalar SlicingScenario.node[10].nic.mac1609_4 ReceivedBroadcasts_SCH 17381
scalar SlicingScenario.node[10].nic.mac1609_4 SentPackets_SCH 0
scalar SlicingScenario.node[10].nic.mac1609_4 SentAcknowledgements_SCH 0
scalar SlicingScenario.node[10].nic.mac1609_4 SNIRLostPackets_SCH 0
scalar SlicingScenario.node[10].nic.mac1609_4 RXTXLostPackets_SCH 0
scalar SlicingScenario.node[10].nic.mac1609_4 TotalLostPackets_SCH 0
scalar SlicingScenario.node[10].nic.mac1609_4 DroppedPacketsInMac_SCH 0
scalar SlicingScenario.node[10].nic.mac1609_4 TooLittleTime_SCH 0
scalar SlicingScenario.node[10].nic.mac1609_4 TimesIntoBackoff_SCH 0
scalar SlicingScenario.node[10].nic.mac1609_4 SlotsBackoff_SCH 0
scalar SlicingScenario.node[10].nic.mac1609_4 NumInternalContention_SCH 0
scalar SlicingScenario.node[10].nic.mac1609_4 RemainingPacketsInEDCA_SCH 0
scalar SlicingScenario.node[10].nic.mac1609_4 totalBusyTime_SCH 34.445712
scalar SlicingScenario.node[10].veinsmobility startTime 3
scalar SlicingScenario.node[10].veinsmobility totalTime 93
scalar SlicingScenario.node[10].veinsmobility stopTime 97
scalar SlicingScenario.node[10].veinsmobility minSpeed 4.952477724418
scalar SlicingScenario.node[10].veinsmobility maxSpeed 11.109488591449
scalar SlicingScenario.node[10].veinsmobility totalDistance 976.58122198917
scalar SlicingScenario.node[10].veinsmobility totalCO2Emission 172.60790084007
scalar SlicingScenario.node[9].appl txPackets_CCH_67 0
scalar SlicingScenario.node[9].appl rxPackets_CCH_67 0
scalar SlicingScenario.node[9].appl rxNeighborPackets_CCH_67 0
scalar SlicingScenario.node[9].appl meanDelay_CCH_67 0
scalar SlicingScenario.node[9].appl meanJitter_CCH_67 0
scalar SlicingScenario.node[9].appl meanRxPacketSize_CCH_67 0
scalar SlicingScenario.node[9].appl meanTxPacketSize_CCH_67 0
scalar SlicingScenario.node[9].appl meanRxThroughput_CCH_67 0
scalar SlicingScenario.node[9].appl meanTxThroughput_CCH_67 0
scalar SlicingScenario.node[9].appl rxTimeOfService_CCH_67 0
scalar SlicingScenario.node[9].appl txTimeOfService_CCH_67 0
scalar SlicingScenario.node[9].appl txPackets_SCH_40_67 0
scalar SlicingScenario.node[9].appl rxPackets_SCH_40_67 267
scalar SlicingScenario.node[9].appl rxNeighborPackets_SCH_40_67 2311
scalar SlicingScenario.node[9].appl meanDelay_SCH_40_67 39.120337014125
scalar SlicingScenario.node[9].appl meanJitter_SCH_40_67 0.280898436591
scalar SlicingScenario.node[9].appl meanRxPacketSize_SCH_40_67 1510
scalar SlicingScenario.node[9].appl meanTxPacketSize_SCH_40_67 0
scalar SlicingScenario.node[9].appl meanRxThroughput_SCH_40_67 40993.629301693
scalar SlicingScenario.node[9].appl meanTxThroughput_SCH_40_67 0
scalar SlicingScenario.node[9].appl rxTimeOfService_SCH_40_67 78.679542527521
scalar SlicingScenario.node[9].appl txTimeOfService_SCH_40_67 0
scalar SlicingScenario.node[9].nic.phy80211p busyTime 0.37148816842108
scalar SlicingScenario.node[9].nic.phy80211p ncollisions 0
scalar SlicingScenario.node[9].nic.phy80211p UnderSensitivityPackets 1498
scalar SlicingScenario.node[9].nic.mac1609_4 ReceivedUnicastPackets_CCH 0
scalar SlicingScenario.node[9].nic.mac1609_4 ReceivedBroadcasts_CCH 101
scalar SlicingScenario.node[9].nic.mac1609_4 SentPackets_CCH 0
scalar SlicingScenario.node[9].nic.mac1609_4 SentAcknowledgements_CCH 0
scalar SlicingScenario.node[9].nic.mac1609_4 SNIRLostPackets_CCH 0
scalar SlicingScenario.node[9].nic.mac1609_4 RXTXLostPackets_CCH 0
scalar SlicingScenario.node[9].nic.mac1609_4 TotalLostPackets_CCH 0
scalar SlicingScenario.node[9].nic.mac1609_4 DroppedPacketsInMac_CCH 0
scalar SlicingScenario.node[9].nic.mac1609_4 TooLittleTime_CCH 0
scalar SlicingScenario.node[9].nic.mac1609_4 TimesIntoBackoff_CCH 0
scalar SlicingScenario.node[9].nic.mac1609_4 SlotsBackoff_CCH 0
scalar SlicingScenario.node[9].nic.mac1609_4 NumInternalContention_CCH 0
scalar SlicingScenario.node[9].nic.mac1609_4 RemainingPacketsInEDCA_CCH 0
scalar SlicingScenario.node[9].nic.mac1609_4 totalBusyTime_CCH 0.379838190069
scalar SlicingScenario.node[9].nic.mac1609_4 ReceivedUnicastPackets_SCH 0
scalar SlicingScenario.node[9].nic.mac1609_4 ReceivedBroadcasts_SCH 17706
scalar SlicingScenario.node[9].nic.mac1609_4 SentPackets_SCH 0
scalar SlicingScenario.node[9].nic.mac1609_4 SentAcknowledgements_SCH 0
scalar SlicingScenario.node[9].nic.mac1609_4 SNIRLostPackets_SCH 0
scalar SlicingScenario.node[9].nic.mac1609_4 RXTXLostPackets_SCH 0
scalar SlicingScenario.node[9].nic.mac1609_4 TotalLostPackets_SCH 0
scalar SlicingScenario.node[9].nic.mac1609_4 DroppedPacketsInMac_SCH 0
scalar SlicingScenario.node[9].nic.mac1609_4 TooLittleTime_SCH 0
scalar SlicingScenario.node[9].nic.mac1609_4 TimesIntoBackoff_SCH 0
scalar SlicingScenario.node[9].nic.mac1609_4 SlotsBackoff_SCH 0
scalar SlicingScenario.node[9].nic.mac1609_4 NumInternalContention_SCH 0
scalar SlicingScenario.node[9].nic.mac1609_4 RemainingPacketsInEDCA_SCH 0
scalar SlicingScenario.node[9].nic.mac1609_4 totalBusyTime_SCH 35.099712
scalar SlicingScenario.node[9].veinsmobility startTime 3
scalar SlicingScenario.node[9].veinsmobility totalTime 94
scalar SlicingScenario.node[9].veinsmobility stopTime 98
scalar SlicingScenario.node[9].veinsmobility minSpeed 5.0008369560339
scalar SlicingScenario.node[9].veinsmobility maxSpeed 11.108892583651
scalar SlicingScenario.node[9].veinsmobility totalDistance 984.88562614679
scalar SlicingScenario.node[9].veinsmobility totalCO2Emission 174.5974997228
scalar SlicingScenario.node[8].appl txPackets_CCH_61 0
scalar SlicingScenario.node[8].appl rxPackets_CCH_61 0
scalar SlicingScenario.node[8].appl rxNeighborPackets_CCH_61 0
scalar SlicingScenario.node[8].appl meanDelay_CCH_61 0
scalar SlicingScenario.node[8].appl meanJitter_CCH_61 0
scalar SlicingScenario.node[8].appl meanRxPacketSize_CCH_61 0
scalar SlicingScenario.node[8].appl meanTxPacketSize_CCH_61 0
scalar SlicingScenario.node[8].appl meanRxThroughput_CCH_61 0
scalar SlicingScenario.node[8].appl meanTxThroughput_CCH_61 0
scalar SlicingScenario.node[8].appl rxTimeOfService_CCH_61 0
scalar SlicingScenario.node[8].appl txTimeOfService_CCH_61 0
scalar SlicingScenario.node[8].appl txPackets_SCH_40_61 0
scalar SlicingScenario.node[8].appl rxPackets_SCH_40_61 254
scalar SlicingScenario.node[8].appl rxNeighborPackets_SCH_40_61 2349
scalar SlicingScenario.node[8].appl meanDelay_SCH_40_61 40.754263162559
scalar SlicingScenario.node[8].appl meanJitter_SCH_40_61 0.295314018328
scalar SlicingScenario.node[8].appl meanRxPacketSize_SCH_40_61 1510
scalar SlicingScenario.node[8].appl meanTxPacketSize_SCH_40_61 0
scalar SlicingScenario.node[8].appl meanRxThroughput_SCH_40_61 40914.189771223
scalar SlicingScenario.node[8].appl meanTxThroughput_SCH_40_61 0
scalar SlicingScenario.node[8].appl rxTimeOfService_SCH_40_61 74.994030607888
scalar SlicingScenario.node[8].appl txTimeOfService_SCH_40_61 0
scalar SlicingScenario.node[8].nic.phy80211p busyTime 0.37592488421055
scalar SlicingScenario.node[8].nic.phy80211p ncollisions 0
scalar SlicingScenario.node[8].nic.phy80211p UnderSensitivityPackets 1285
scalar SlicingScenario.node[8].nic.mac1609_4 ReceivedUnicastPackets_CCH 0
scalar SlicingScenario.node[8].nic.mac1609_4 ReceivedBroadcasts_CCH 102
scalar SlicingScenario.node[8].nic.mac1609_4 SentPackets_CCH 0
scalar SlicingScenario.node[8].nic.mac1609_4 SentAcknowledgements_CCH 0
scalar SlicingScenario.node[8].nic.mac1609_4 SNIRLostPackets_CCH 0
scalar SlicingScenario.node[8].nic.mac1609_4 RXTXLostPackets_CCH 0
scalar SlicingScenario.node[8].nic.mac1609_4 TotalLostPackets_CCH 0
scalar SlicingScenario.node[8].nic.mac1609_4 DroppedPacketsInMac_CCH 0
scalar SlicingScenario.node[8].nic.mac1609_4 TooLittleTime_CCH 0
scalar SlicingScenario.node[8].nic.mac1609_4 TimesIntoBackoff_CCH 0
scalar SlicingScenario.node[8].nic.mac1609_4 SlotsBackoff_CCH 0
scalar SlicingScenario.node[8].nic.mac1609_4 NumInternalContention_CCH 0
scalar SlicingScenario.node[8].nic.mac1609_4 RemainingPacketsInEDCA_CCH 0
scalar SlicingScenario.node[8].nic.mac1609_4 totalBusyTime_CCH 0.384030220719
scalar SlicingScenario.node[8].nic.mac1609_4 ReceivedUnicastPackets_SCH 0
scalar SlicingScenario.node[8].nic.mac1609_4 ReceivedBroadcasts_SCH 17918
scalar SlicingScenario.node[8].nic.mac1609_4 SentPackets_SCH 0
scalar SlicingScenario.node[8].nic.mac1609_4 SentAcknowledgements_SCH 0
scalar SlicingScenario.node[8].nic.mac1609_4 SNIRLostPackets_SCH 0
scalar SlicingScenario.node[8].nic.mac1609_4 RXTXLostPackets_SCH 0
scalar SlicingScenario.node[8].nic.mac1609_4 TotalLostPackets_SCH 0
scalar SlicingScenario.node[8].nic.mac1609_4 DroppedPacketsInMac_SCH 0
scalar SlicingScenario.node[8].nic.mac1609_4 TooLittleTime_SCH 0
scalar SlicingScenario.node[8].nic.mac1609_4 TimesIntoBackoff_SCH 0
scalar SlicingScenario.node[8].nic.mac1609_4 SlotsBackoff_SCH 0
scalar SlicingScenario.node[8].nic.mac1609_4 NumInternalContention_SCH 0
scalar SlicingScenario.node[8].nic.mac1609_4 RemainingPacketsInEDCA_SCH 0
scalar SlicingScenario.node[8].nic.mac1609_4 totalBusyTime_SCH 35.519136
scalar SlicingScenario.node[8].veinsmobility startTime 3
scalar SlicingScenario.node[8].veinsmobility totalTime 94
scalar SlicingScenario.node[8].veinsmobility stopTime 98
scalar SlicingScenario.node[8].veinsmobility minSpeed 4.8852122338824
scalar SlicingScenario.node[8].veinsmobility maxSpeed 11.109198805774
scalar SlicingScenario.node[8].veinsmobility totalDistance 980.89990410083
scalar SlicingScenario.node[8].veinsmobility totalCO2Emission 173.79920105813
scalar SlicingScenario.node[11].appl txPackets_CCH_79 0
scalar SlicingScenario.node[11].appl rxPackets_CCH_79 0
scalar SlicingScenario.node[11].appl rxNeighborPackets_CCH_79 0
scalar SlicingScenario.node[11].appl meanDelay_CCH_79 0
scalar SlicingScenario.node[11].appl meanJitter_CCH_79 0
scalar SlicingScenario.node[11].appl meanRxPacketSize_CCH_79 0
scalar SlicingScenario.node[11].appl meanTxPacketSize_CCH_79 0
scalar SlicingScenario.node[11].appl meanRxThroughput_CCH_79 0
scalar SlicingScenario.node[11].appl meanTxThroughput_CCH_79 0
scalar SlicingScenario.node[11].appl rxTimeOfService_CCH_79 0
scalar SlicingScenario.node[11].appl txTimeOfService_CCH_79 0
scalar SlicingScenario.node[11].appl txPackets_SCH_41_79 0
scalar SlicingScenario.node[11].appl rxPackets_SCH_41_79 1883
scalar SlicingScenario.node[11].appl rxNeighborPackets_SCH_41_79 13534
scalar SlicingScenario.node[11].appl meanDelay_SCH_41_79 39.019492212194
scalar SlicingScenario.node[11].appl meanJitter_SCH_41_79 0.039705861398
scalar SlicingScenario.node[11].appl meanRxPacketSize_SCH_41_79 1438
scalar SlicingScenario.node[11].appl meanTxPacketSize_SCH_41_79 0
scalar SlicingScenario.node[11].appl meanRxThroughput_SCH_41_79 276733.53613971
scalar SlicingScenario.node[11].appl meanTxThroughput_SCH_41_79 0
scalar SlicingScenario.node[11].appl rxTimeOfService_SCH_41_79 78.308687491565
scalar SlicingScenario.node[11].appl txTimeOfService_SCH_41_79 0
scalar SlicingScenario.node[11].nic.phy80211p busyTime 0.37592488421055
scalar SlicingScenario.node[11].nic.phy80211p ncollisions 0
scalar SlicingScenario.node[11].nic.phy80211p UnderSensitivityPackets 1285
scalar SlicingScenario.node[11].nic.mac1609_4 ReceivedUnicastPackets_CCH 0
scalar SlicingScenario.node[11].nic.mac1609_4 ReceivedBroadcasts_CCH 71
scalar SlicingScenario.node[11].nic.mac1609_4 SentPackets_CCH 0
scalar SlicingScenario.node[11].nic.mac1609_4 SentAcknowledgements_CCH 0
scalar SlicingScenario.node[11].nic.mac1609_4 SNIRLostPackets_CCH 0
scalar SlicingScenario.node[11].nic.mac1609_4 RXTXLostPackets_CCH 0
scalar SlicingScenario.node[11].nic.mac1609_4 TotalLostPackets_CCH 0
scalar SlicingScenario.node[11].nic.mac1609_4 DroppedPacketsInMac_CCH 0
scalar SlicingScenario.node[11].nic.mac1609_4 TooLittleTime_CCH 0
scalar SlicingScenario.node[11].nic.mac1609_4 TimesIntoBackoff_CCH 0
scalar SlicingScenario.node[11].nic.mac1609_4 SlotsBackoff_CCH 0
scalar SlicingScenario.node[11].nic.mac1609_4 NumInternalContention_CCH 0
scalar SlicingScenario.node[11].nic.mac1609_4 RemainingPacketsInEDCA_CCH 0
scalar SlicingScenario.node[11].nic.mac1609_4 totalBusyTime_CCH 0.264875146453
scalar SlicingScenario.node[11].nic.mac1609_4 ReceivedUnicastPackets_SCH 0
scalar SlicingScenario.node[11].nic.mac1609_4 ReceivedBroadcasts_SCH 17949
scalar SlicingScenario.node[11].nic.mac1609_4 SentPackets_SCH 0
scalar SlicingScenario.node[11].nic.mac1609_4 SentAcknowledgements_SCH 0
scalar SlicingScenario.node[11].nic.mac1609_4 SNIRLostPackets_SCH 0
scalar SlicingScenario.node[11].nic.mac1609_4 RXTXLostPackets_SCH 0
scalar SlicingScenario.node[11].nic.mac1609_4 TotalLostPackets_SCH 0
scalar SlicingScenario.node[11].nic.mac1609_4 DroppedPacketsInMac_SCH 0
scalar SlicingScenario.node[11].nic.mac1609_4 TooLittleTime_SCH 0
scalar SlicingScenario.node[11].nic.mac1609_4 TimesIntoBackoff_SCH 0
scalar SlicingScenario.node[11].nic.mac1609_4 SlotsBackoff_SCH 0
scalar SlicingScenario.node[11].nic.mac1609_4 NumInternalContention_SCH 0
scalar SlicingScenario.node[11].nic.mac1609_4 RemainingPacketsInEDCA_SCH 0
scalar SlicingScenario.node[11].nic.mac1609_4 totalBusyTime_SCH 35.57976
scalar SlicingScenario.node[11].veinsmobility startTime 3
scalar SlicingScenario.node[11].veinsmobility totalTime 94
scalar SlicingScenario.node[11].veinsmobility stopTime 98
scalar SlicingScenario.node[11].veinsmobility minSpeed 4.2897685918929
scalar SlicingScenario.node[11].veinsmobility maxSpeed 11.105027114288
scalar SlicingScenario.node[11].veinsmobility totalDistance 980.07001448834
scalar SlicingScenario.node[11].veinsmobility totalCO2Emission 174.66542313763
scalar SlicingScenario.node[13].appl txPackets_CCH_91 0
scalar SlicingScenario.node[13].appl rxPackets_CCH_91 0
scalar SlicingScenario.node[13].appl rxNeighborPackets_CCH_91 0
scalar SlicingScenario.node[13].appl meanDelay_CCH_91 0
scalar SlicingScenario.node[13].appl meanJitter_CCH_91 0
scalar SlicingScenario.node[13].appl meanRxPacketSize_CCH_91 0
scalar SlicingScenario.node[13].appl meanTxPacketSize_CCH_91 0
scalar SlicingScenario.node[13].appl meanRxThroughput_CCH_91 0
scalar SlicingScenario.node[13].appl meanTxThroughput_CCH_91 0
scalar SlicingScenario.node[13].appl rxTimeOfService_CCH_91 0
scalar SlicingScenario.node[13].appl txTimeOfService_CCH_91 0
scalar SlicingScenario.node[13].appl txPackets_SCH_40_91 0
scalar SlicingScenario.node[13].appl rxPackets_SCH_40_91 180
scalar SlicingScenario.node[13].appl rxNeighborPackets_SCH_40_91 2486
scalar SlicingScenario.node[13].appl meanDelay_SCH_40_91 51.399036350531
scalar SlicingScenario.node[13].appl meanJitter_SCH_40_91 0.427302231856
scalar SlicingScenario.node[13].appl meanRxPacketSize_SCH_40_91 1510
scalar SlicingScenario.node[13].appl meanTxPacketSize_SCH_40_91 0
scalar SlicingScenario.node[13].appl meanRxThroughput_SCH_40_91 39395.923131801
scalar SlicingScenario.node[13].appl meanTxThroughput_SCH_40_91 0
scalar SlicingScenario.node[13].appl rxTimeOfService_SCH_40_91 55.193528343667
scalar SlicingScenario.node[13].appl txTimeOfService_SCH_40_91 0
scalar SlicingScenario.node[13].nic.phy80211p busyTime 0.38030955789475
scalar SlicingScenario.node[13].nic.phy80211p ncollisions 0
scalar SlicingScenario.node[13].nic.phy80211p UnderSensitivityPackets 1502
scalar SlicingScenario.node[13].nic.mac1609_4 ReceivedUnicastPackets_CCH 0
scalar SlicingScenario.node[13].nic.mac1609_4 ReceivedBroadcasts_CCH 0
scalar SlicingScenario.node[13].nic.mac1609_4 SentPackets_CCH 0
scalar SlicingScenario.node[13].nic.mac1609_4 SentAcknowledgements_CCH 0
scalar SlicingScenario.node[13].nic.mac1609_4 SNIRLostPackets_CCH 0
scalar SlicingScenario.node[13].nic.mac1609_4 RXTXLostPackets_CCH 0
scalar SlicingScenario.node[13].nic.mac1609_4 TotalLostPackets_CCH 0
scalar SlicingScenario.node[13].nic.mac1609_4 DroppedPacketsInMac_CCH 0
scalar SlicingScenario.node[13].nic.mac1609_4 TooLittleTime_CCH 0
scalar SlicingScenario.node[13].nic.mac1609_4 TimesIntoBackoff_CCH 0
scalar SlicingScenario.node[13].nic.mac1609_4 SlotsBackoff_CCH 0
scalar SlicingScenario.node[13].nic.mac1609_4 NumInternalContention_CCH 0
scalar SlicingScenario.node[13].nic.mac1609_4 RemainingPacketsInEDCA_CCH 0
scalar SlicingScenario.node[13].nic.mac1609_4 totalBusyTime_CCH 0
scalar SlicingScenario.node[13].nic.mac1609_4 ReceivedUnicastPackets_SCH 0
scalar SlicingScenario.node[13].nic.mac1609_4 ReceivedBroadcasts_SCH 18228
scalar SlicingScenario.node[13].nic.mac1609_4 SentPackets_SCH 0
scalar SlicingScenario.node[13].nic.mac1609_4 SentAcknowledgements_SCH 0
scalar SlicingScenario.node[13].nic.mac1609_4 SNIRLostPackets_SCH 0
scalar SlicingScenario.node[13].nic.mac1609_4 RXTXLostPackets_SCH 0
scalar SlicingScenario.node[13].nic.mac1609_4 TotalLostPackets_SCH 0
scalar SlicingScenario.node[13].nic.mac1609_4 DroppedPacketsInMac_SCH 0
scalar SlicingScenario.node[13].nic.mac1609_4 TooLittleTime_SCH 0
scalar SlicingScenario.node[13].nic.mac1609_4 TimesIntoBackoff_SCH 0
scalar SlicingScenario.node[13].nic.mac1609_4 SlotsBackoff_SCH 0
scalar SlicingScenario.node[13].nic.mac1609_4 NumInternalContention_SCH 0
scalar SlicingScenario.node[13].nic.mac1609_4 RemainingPacketsInEDCA_SCH 0
scalar SlicingScenario.node[13].nic.mac1609_4 totalBusyTime_SCH 36.129408
scalar SlicingScenario.node[13].veinsmobility startTime 5
scalar SlicingScenario.node[13].veinsmobility totalTime 94
scalar SlicingScenario.node[13].veinsmobility stopTime 100
scalar SlicingScenario.node[13].veinsmobility minSpeed 4.7802655911173
scalar SlicingScenario.node[13].veinsmobility maxSpeed 11.083093545763
scalar SlicingScenario.node[13].veinsmobility totalDistance 983.47883236479
scalar SlicingScenario.node[13].veinsmobility totalCO2Emission 173.82376521266
scalar SlicingScenario.node[15].appl txPackets_CCH_103 0
scalar SlicingScenario.node[15].appl rxPackets_CCH_103 0
scalar SlicingScenario.node[15].appl rxNeighborPackets_CCH_103 0
scalar SlicingScenario.node[15].appl meanDelay_CCH_103 0
scalar SlicingScenario.node[15].appl meanJitter_CCH_103 0
scalar SlicingScenario.node[15].appl meanRxPacketSize_CCH_103 0
scalar SlicingScenario.node[15].appl meanTxPacketSize_CCH_103 0
scalar SlicingScenario.node[15].appl meanRxThroughput_CCH_103 0
scalar SlicingScenario.node[15].appl meanTxThroughput_CCH_103 0
scalar SlicingScenario.node[15].appl rxTimeOfService_CCH_103 0
scalar SlicingScenario.node[15].appl txTimeOfService_CCH_103 0
scalar SlicingScenario.node[15].appl txPackets_SCH_41_103 0
scalar SlicingScenario.node[15].appl rxPackets_SCH_41_103 1323
scalar SlicingScenario.node[15].appl rxNeighborPackets_SCH_41_103 14258
scalar SlicingScenario.node[15].appl meanDelay_SCH_41_103 49.786307545038
scalar SlicingScenario.node[15].appl meanJitter_SCH_41_103 0.057991132218
scalar SlicingScenario.node[15].appl meanRxPacketSize_SCH_41_103 1438
scalar SlicingScenario.node[15].appl meanTxPacketSize_SCH_41_103 0
scalar SlicingScenario.node[15].appl meanRxThroughput_SCH_41_103 259467.65166205
scalar SlicingScenario.node[15].appl meanTxThroughput_SCH_41_103 0
scalar SlicingScenario.node[15].appl rxTimeOfService_SCH_41_103 58.681072197127
scalar SlicingScenario.node[15].appl txTimeOfService_SCH_41_103 0
scalar SlicingScenario.node[15].nic.phy80211p busyTime 0.38038989473686
scalar SlicingScenario.node[15].nic.phy80211p ncollisions 0
scalar SlicingScenario.node[15].nic.phy80211p UnderSensitivityPackets 1497
scalar SlicingScenario.node[15].nic.mac1609_4 ReceivedUnicastPackets_CCH 0
scalar SlicingScenario.node[15].nic.mac1609_4 ReceivedBroadcasts_CCH 24
scalar SlicingScenario.node[15].nic.mac1609_4 SentPackets_CCH 0
scalar SlicingScenario.node[15].nic.mac1609_4 SentAcknowledgements_CCH 0
scalar SlicingScenario.node[15].nic.mac1609_4 SNIRLostPackets_CCH 0
scalar SlicingScenario.node[15].nic.mac1609_4 RXTXLostPackets_CCH 0
scalar SlicingScenario.node[15].nic.mac1609_4 TotalLostPackets_CCH 0
scalar SlicingScenario.node[15].nic.mac1609_4 DroppedPacketsInMac_CCH 0
scalar SlicingScenario.node[15].nic.mac1609_4 TooLittleTime_CCH 0
scalar SlicingScenario.node[15].nic.mac1609_4 TimesIntoBackoff_CCH 0
scalar SlicingScenario.node[15].nic.mac1609_4 SlotsBackoff_CCH 0
scalar SlicingScenario.node[15].nic.mac1609_4 NumInternalContention_CCH 0
scalar SlicingScenario.node[15].nic.mac1609_4 RemainingPacketsInEDCA_CCH 0
scalar SlicingScenario.node[15].nic.mac1609_4 totalBusyTime_CCH 0.090989152307
scalar SlicingScenario.node[15].nic.mac1609_4 ReceivedUnicastPackets_SCH 0
scalar SlicingScenario.node[15].nic.mac1609_4 ReceivedBroadcasts_SCH 18209
scalar SlicingScenario.node[15].nic.mac1609_4 SentPackets_SCH 0
scalar SlicingScenario.node[15].nic.mac1609_4 SentAcknowledgements_SCH 0
scalar SlicingScenario.node[15].nic.mac1609_4 SNIRLostPackets_SCH 0
scalar SlicingScenario.node[15].nic.mac1609_4 RXTXLostPackets_SCH 0
scalar SlicingScenario.node[15].nic.mac1609_4 TotalLostPackets_SCH 0
scalar SlicingScenario.node[15].nic.mac1609_4 DroppedPacketsInMac_SCH 0
scalar SlicingScenario.node[15].nic.mac1609_4 TooLittleTime_SCH 0
scalar SlicingScenario.node[15].nic.mac1609_4 TimesIntoBackoff_SCH 0
scalar SlicingScenario.node[15].nic.mac1609_4 SlotsBackoff_SCH 0
scalar SlicingScenario.node[15].nic.mac1609_4 NumInternalContention_SCH 0
scalar SlicingScenario.node[15].nic.mac1609_4 RemainingPacketsInEDCA_SCH 0
scalar SlicingScenario.node[15].nic.mac1609_4 totalBusyTime_SCH 36.091536
scalar SlicingScenario.node[15].veinsmobility startTime 5
scalar SlicingScenario.node[15].veinsmobility totalTime 94
scalar SlicingScenario.node[15].veinsmobility stopTime 100
scalar SlicingScenario.node[15].veinsmobility minSpeed 4.2746130565265
scalar SlicingScenario.node[15].veinsmobility maxSpeed 11.104380857679
scalar SlicingScenario.node[15].veinsmobility totalDistance 977.84425575095
scalar SlicingScenario.node[15].veinsmobility totalCO2Emission 175.1330357722
scalar SlicingScenario.node[12].appl txPackets_CCH_85 0
scalar SlicingScenario.node[12].appl rxPackets_CCH_85 0
scalar SlicingScenario.node[12].appl rxNeighborPackets_CCH_85 0
scalar SlicingScenario.node[12].appl meanDelay_CCH_85 0
scalar SlicingScenario.node[12].appl meanJitter_CCH_85 0
scalar SlicingScenario.node[12].appl meanRxPacketSize_CCH_85 0
scalar SlicingScenario.node[12].appl meanTxPacketSize_CCH_85 0
scalar SlicingScenario.node[12].appl meanRxThroughput_CCH_85 0
scalar SlicingScenario.node[12].appl meanTxThroughput_CCH_85 0
scalar SlicingScenario.node[12].appl rxTimeOfService_CCH_85 0
scalar SlicingScenario.node[12].appl txTimeOfService_CCH_85 0
scalar SlicingScenario.node[12].appl txPackets_SCH_40_85 0
scalar SlicingScenario.node[12].appl rxPackets_SCH_40_85 178
scalar SlicingScenario.node[12].appl rxNeighborPackets_SCH_40_85 2514
scalar SlicingScenario.node[12].appl meanDelay_SCH_40_85 51.649121083984
scalar SlicingScenario.node[12].appl meanJitter_SCH_40_85 0.432131530305
scalar SlicingScenario.node[12].appl meanRxPacketSize_SCH_40_85 1510
scalar SlicingScenario.node[12].appl meanTxPacketSize_SCH_40_85 0
scalar SlicingScenario.node[12].appl meanRxThroughput_SCH_40_85 39366.868058677
scalar SlicingScenario.node[12].appl meanTxThroughput_SCH_40_85 0
scalar SlicingScenario.node[12].appl rxTimeOfService_SCH_40_85 54.620550377414
scalar SlicingScenario.node[12].appl txTimeOfService_SCH_40_85 0
scalar SlicingScenario.node[12].nic.phy80211p busyTime 0.38482610526317
scalar SlicingScenario.node[12].nic.phy80211p ncollisions 0
scalar SlicingScenario.node[12].nic.phy80211p UnderSensitivityPackets 1285
scalar SlicingScenario.node[12].nic.mac1609_4 ReceivedUnicastPackets_CCH 0
scalar SlicingScenario.node[12].nic.mac1609_4 ReceivedBroadcasts_CCH 0
scalar SlicingScenario.node[12].nic.mac1609_4 SentPackets_CCH 0
scalar SlicingScenario.node[12].nic.mac1609_4 SentAcknowledgements_CCH 0
scalar SlicingScenario.node[12].nic.mac1609_4 SNIRLostPackets_CCH 0
scalar SlicingScenario.node[12].nic.mac1609_4 RXTXLostPackets_CCH 0
scalar SlicingScenario.node[12].nic.mac1609_4 TotalLostPackets_CCH 0
scalar SlicingScenario.node[12].nic.mac1609_4 DroppedPacketsInMac_CCH 0
scalar SlicingScenario.node[12].nic.mac1609_4 TooLittleTime_CCH 0
scalar SlicingScenario.node[12].nic.mac1609_4 TimesIntoBackoff_CCH 0
scalar SlicingScenario.node[12].nic.mac1609_4 SlotsBackoff_CCH 0
scalar SlicingScenario.node[12].nic.mac1609_4 NumInternalContention_CCH 0
scalar SlicingScenario.node[12].nic.mac1609_4 RemainingPacketsInEDCA_CCH 0
scalar SlicingScenario.node[12].nic.mac1609_4 totalBusyTime_CCH 0
scalar SlicingScenario.node[12].nic.mac1609_4 ReceivedUnicastPackets_SCH 0
scalar SlicingScenario.node[12].nic.mac1609_4 ReceivedBroadcasts_SCH 18445
scalar SlicingScenario.node[12].nic.mac1609_4 SentPackets_SCH 0
scalar SlicingScenario.node[12].nic.mac1609_4 SentAcknowledgements_SCH 0
scalar SlicingScenario.node[12].nic.mac1609_4 SNIRLostPackets_SCH 0
scalar SlicingScenario.node[12].nic.mac1609_4 RXTXLostPackets_SCH 0
scalar SlicingScenario.node[12].nic.mac1609_4 TotalLostPackets_SCH 0
scalar SlicingScenario.node[12].nic.mac1609_4 DroppedPacketsInMac_SCH 0
scalar SlicingScenario.node[12].nic.mac1609_4 TooLittleTime_SCH 0
scalar SlicingScenario.node[12].nic.mac1609_4 TimesIntoBackoff_SCH 0
scalar SlicingScenario.node[12].nic.mac1609_4 SlotsBackoff_SCH 0
scalar SlicingScenario.node[12].nic.mac1609_4 NumInternalContention_SCH 0
scalar SlicingScenario.node[12].nic.mac1609_4 RemainingPacketsInEDCA_SCH 0
scalar SlicingScenario.node[12].nic.mac1609_4 totalBusyTime_SCH 36.55848
scalar SlicingScenario.node[12].veinsmobility startTime 5
scalar SlicingScenario.node[12].veinsmobility totalTime 94
scalar SlicingScenario.node[12].veinsmobility stopTime 100
scalar SlicingScenario.node[12].veinsmobility minSpeed 4.8998951900676
scalar SlicingScenario.node[12].veinsmobility maxSpeed 11.109782677041
scalar SlicingScenario.node[12].veinsmobility totalDistance 984.24143942069
scalar SlicingScenario.node[12].veinsmobility totalCO2Emission 173.4149840982
scalar SlicingScenario.node[14].appl txPackets_CCH_97 0
scalar SlicingScenario.node[14].appl rxPackets_CCH_97 0
scalar SlicingScenario.node[14].appl rxNeighborPackets_CCH_97 0
scalar SlicingScenario.node[14].appl meanDelay_CCH_97 0
scalar SlicingScenario.node[14].appl meanJitter_CCH_97 0
scalar SlicingScenario.node[14].appl meanRxPacketSize_CCH_97 0
scalar SlicingScenario.node[14].appl meanTxPacketSize_CCH_97 0
scalar SlicingScenario.node[14].appl meanRxThroughput_CCH_97 0
scalar SlicingScenario.node[14].appl meanTxThroughput_CCH_97 0
scalar SlicingScenario.node[14].appl rxTimeOfService_CCH_97 0
scalar SlicingScenario.node[14].appl txTimeOfService_CCH_97 0
scalar SlicingScenario.node[14].appl txPackets_SCH_40_97 0
scalar SlicingScenario.node[14].appl rxPackets_SCH_40_97 195
scalar SlicingScenario.node[14].appl rxNeighborPackets_SCH_40_97 2471
scalar SlicingScenario.node[14].appl meanDelay_SCH_40_97 49.757520105473
scalar SlicingScenario.node[14].appl meanJitter_SCH_40_97 0.399161992033
scalar SlicingScenario.node[14].appl meanRxPacketSize_SCH_40_97 1510
scalar SlicingScenario.node[14].appl meanTxPacketSize_SCH_40_97 0
scalar SlicingScenario.node[14].appl meanRxThroughput_SCH_40_97 39071.253177636
scalar SlicingScenario.node[14].appl meanTxThroughput_SCH_40_97 0
scalar SlicingScenario.node[14].appl rxTimeOfService_SCH_40_97 60.289850169135
scalar SlicingScenario.node[14].appl txTimeOfService_SCH_40_97 0
scalar SlicingScenario.node[14].nic.phy80211p busyTime 0.37638400000002
scalar SlicingScenario.node[14].nic.phy80211p ncollisions 0
scalar SlicingScenario.node[14].nic.phy80211p UnderSensitivityPackets 1711
scalar SlicingScenario.node[14].nic.mac1609_4 ReceivedUnicastPackets_CCH 0
scalar SlicingScenario.node[14].nic.mac1609_4 ReceivedBroadcasts_CCH 0
scalar SlicingScenario.node[14].nic.mac1609_4 SentPackets_CCH 0
scalar SlicingScenario.node[14].nic.mac1609_4 SentAcknowledgements_CCH 0
scalar SlicingScenario.node[14].nic.mac1609_4 SNIRLostPackets_CCH 0
scalar SlicingScenario.node[14].nic.mac1609_4 RXTXLostPackets_CCH 0
scalar SlicingScenario.node[14].nic.mac1609_4 TotalLostPackets_CCH 0
scalar SlicingScenario.node[14].nic.mac1609_4 DroppedPacketsInMac_CCH 0
scalar SlicingScenario.node[14].nic.mac1609_4 TooLittleTime_CCH 0
scalar SlicingScenario.node[14].nic.mac1609_4 TimesIntoBackoff_CCH 0
scalar SlicingScenario.node[14].nic.mac1609_4 SlotsBackoff_CCH 0
scalar SlicingScenario.node[14].nic.mac1609_4 NumInternalContention_CCH 0
scalar SlicingScenario.node[14].nic.mac1609_4 RemainingPacketsInEDCA_CCH 0
scalar SlicingScenario.node[14].nic.mac1609_4 totalBusyTime_CCH 0
scalar SlicingScenario.node[14].nic.mac1609_4 ReceivedUnicastPackets_SCH 0
scalar SlicingScenario.node[14].nic.mac1609_4 ReceivedBroadcasts_SCH 18230
scalar SlicingScenario.node[14].nic.mac1609_4 SentPackets_SCH 0
scalar SlicingScenario.node[14].nic.mac1609_4 SentAcknowledgements_SCH 0
scalar SlicingScenario.node[14].nic.mac1609_4 SNIRLostPackets_SCH 0
scalar SlicingScenario.node[14].nic.mac1609_4 RXTXLostPackets_SCH 0
scalar SlicingScenario.node[14].nic.mac1609_4 TotalLostPackets_SCH 0
scalar SlicingScenario.node[14].nic.mac1609_4 DroppedPacketsInMac_SCH 0
scalar SlicingScenario.node[14].nic.mac1609_4 TooLittleTime_SCH 0
scalar SlicingScenario.node[14].nic.mac1609_4 TimesIntoBackoff_SCH 0
scalar SlicingScenario.node[14].nic.mac1609_4 SlotsBackoff_SCH 0
scalar SlicingScenario.node[14].nic.mac1609_4 NumInternalContention_SCH 0
scalar SlicingScenario.node[14].nic.mac1609_4 RemainingPacketsInEDCA_SCH 0
scalar SlicingScenario.node[14].nic.mac1609_4 totalBusyTime_SCH 36.132864
scalar SlicingScenario.node[14].veinsmobility startTime 5
scalar SlicingScenario.node[14].veinsmobility totalTime 95
scalar SlicingScenario.node[14].veinsmobility stopTime 101
scalar SlicingScenario.node[14].veinsmobility minSpeed 3.7142994495733
scalar SlicingScenario.node[14].veinsmobility maxSpeed 11.106313975193
scalar SlicingScenario.node[14].veinsmobility totalDistance 983.9955516843
scalar SlicingScenario.node[14].veinsmobility totalCO2Emission 175.8900668436
scalar SlicingScenario.node[18].appl txPackets_CCH_121 0
scalar SlicingScenario.node[18].appl rxPackets_CCH_121 0
scalar SlicingScenario.node[18].appl rxNeighborPackets_CCH_121 0
scalar SlicingScenario.node[18].appl meanDelay_CCH_121 0
scalar SlicingScenario.node[18].appl meanJitter_CCH_121 0
scalar SlicingScenario.node[18].appl meanRxPacketSize_CCH_121 0
scalar SlicingScenario.node[18].appl meanTxPacketSize_CCH_121 0
scalar SlicingScenario.node[18].appl meanRxThroughput_CCH_121 0
scalar SlicingScenario.node[18].appl meanTxThroughput_CCH_121 0
scalar SlicingScenario.node[18].appl rxTimeOfService_CCH_121 0
scalar SlicingScenario.node[18].appl txTimeOfService_CCH_121 0
scalar SlicingScenario.node[18].appl txPackets_SCH_40_121 0
scalar SlicingScenario.node[18].appl rxPackets_SCH_40_121 94
scalar SlicingScenario.node[18].appl rxNeighborPackets_SCH_40_121 2649
scalar SlicingScenario.node[18].appl meanDelay_SCH_40_121 64.762213190647
scalar SlicingScenario.node[18].appl meanJitter_SCH_40_121 0.842009318698
scalar SlicingScenario.node[18].appl meanRxPacketSize_SCH_40_121 1510
scalar SlicingScenario.node[18].appl meanTxPacketSize_SCH_40_121 0
scalar SlicingScenario.node[18].appl meanRxThroughput_SCH_40_121 35273.488974838
scalar SlicingScenario.node[18].appl meanTxThroughput_SCH_40_121 0
scalar SlicingScenario.node[18].appl rxTimeOfService_SCH_40_121 32.191882147241
scalar SlicingScenario.node[18].appl txTimeOfService_SCH_40_121 0
scalar SlicingScenario.node[18].nic.phy80211p busyTime 0.38931284210527
scalar SlicingScenario.node[18].nic.phy80211p ncollisions 0
scalar SlicingScenario.node[18].nic.phy80211p UnderSensitivityPackets 1495
scalar SlicingScenario.node[18].nic.mac1609_4 ReceivedUnicastPackets_CCH 0
scalar SlicingScenario.node[18].nic.mac1609_4 ReceivedBroadcasts_CCH 0
scalar SlicingScenario.node[18].nic.mac1609_4 SentPackets_CCH 0
scalar SlicingScenario.node[18].nic.mac1609_4 SentAcknowledgements_CCH 0
scalar SlicingScenario.node[18].nic.mac1609_4 SNIRLostPackets_CCH 0
scalar SlicingScenario.node[18].nic.mac1609_4 RXTXLostPackets_CCH 0
scalar SlicingScenario.node[18].nic.mac1609_4 TotalLostPackets_CCH 0
scalar SlicingScenario.node[18].nic.mac1609_4 DroppedPacketsInMac_CCH 0
scalar SlicingScenario.node[18].nic.mac1609_4 TooLittleTime_CCH 0
scalar SlicingScenario.node[18].nic.mac1609_4 TimesIntoBackoff_CCH 0
scalar SlicingScenario.node[18].nic.mac1609_4 SlotsBackoff_CCH 0
scalar SlicingScenario.node[18].nic.mac1609_4 NumInternalContention_CCH 0
scalar SlicingScenario.node[18].nic.mac1609_4 RemainingPacketsInEDCA_CCH 0
scalar SlicingScenario.node[18].nic.mac1609_4 totalBusyTime_CCH 0
scalar SlicingScenario.node[18].nic.mac1609_4 ReceivedUnicastPackets_SCH 0
scalar SlicingScenario.node[18].nic.mac1609_4 ReceivedBroadcasts_SCH 18659
scalar SlicingScenario.node[18].nic.mac1609_4 SentPackets_SCH 0
scalar SlicingScenario.node[18].nic.mac1609_4 SentAcknowledgements_SCH 0
scalar SlicingScenario.node[18].nic.mac1609_4 SNIRLostPackets_SCH 0
scalar SlicingScenario.node[18].nic.mac1609_4 RXTXLostPackets_SCH 0
scalar SlicingScenario.node[18].nic.mac1609_4 TotalLostPackets_SCH 0
scalar SlicingScenario.node[18].nic.mac1609_4 DroppedPacketsInMac_SCH 0
scalar SlicingScenario.node[18].nic.mac1609_4 TooLittleTime_SCH 0
scalar SlicingScenario.node[18].nic.mac1609_4 TimesIntoBackoff_SCH 0
scalar SlicingScenario.node[18].nic.mac1609_4 SlotsBackoff_SCH 0
scalar SlicingScenario.node[18].nic.mac1609_4 NumInternalContention_SCH 0
scalar SlicingScenario.node[18].nic.mac1609_4 RemainingPacketsInEDCA_SCH 0
scalar SlicingScenario.node[18].nic.mac1609_4 totalBusyTime_SCH 36.98472
scalar SlicingScenario.node[18].veinsmobility startTime 7
scalar SlicingScenario.node[18].veinsmobility totalTime 94
scalar SlicingScenario.node[18].veinsmobility stopTime 102
scalar SlicingScenario.node[18].veinsmobility minSpeed 4.7665700069434
scalar SlicingScenario.node[18].veinsmobility maxSpeed 11.101001090617
scalar SlicingScenario.node[18].veinsmobility totalDistance 984.57914565721
scalar SlicingScenario.node[18].veinsmobility totalCO2Emission 174.16692359893
scalar SlicingScenario.node[16].appl txPackets_CCH_109 0
scalar SlicingScenario.node[16].appl rxPackets_CCH_109 0
scalar SlicingScenario.node[16].appl rxNeighborPackets_CCH_109 0
scalar SlicingScenario.node[16].appl meanDelay_CCH_109 0
scalar SlicingScenario.node[16].appl meanJitter_CCH_109 0
scalar SlicingScenario.node[16].appl meanRxPacketSize_CCH_109 0
scalar SlicingScenario.node[16].appl meanTxPacketSize_CCH_109 0
scalar SlicingScenario.node[16].appl meanRxThroughput_CCH_109 0
scalar SlicingScenario.node[16].appl meanTxThroughput_CCH_109 0
scalar SlicingScenario.node[16].appl rxTimeOfService_CCH_109 0
scalar SlicingScenario.node[16].appl txTimeOfService_CCH_109 0
scalar SlicingScenario.node[16].appl txPackets_SCH_41_109 0
scalar SlicingScenario.node[16].appl rxPackets_SCH_41_109 567
scalar SlicingScenario.node[16].appl rxNeighborPackets_SCH_41_109 15349
scalar SlicingScenario.node[16].appl meanDelay_SCH_41_109 66.816098975407
scalar SlicingScenario.node[16].appl meanJitter_SCH_41_109 0.138222922096
scalar SlicingScenario.node[16].appl meanRxPacketSize_SCH_41_109 1438
scalar SlicingScenario.node[16].appl meanTxPacketSize_SCH_41_109 0
scalar SlicingScenario.node[16].appl meanRxThroughput_SCH_41_109 228994.63036907
scalar SlicingScenario.node[16].appl meanTxThroughput_SCH_41_109 0
scalar SlicingScenario.node[16].appl rxTimeOfService_SCH_41_109 28.495690005845
scalar SlicingScenario.node[16].appl txTimeOfService_SCH_41_109 0
scalar SlicingScenario.node[16].nic.phy80211p busyTime 0.38931284210527
scalar SlicingScenario.node[16].nic.phy80211p ncollisions 0
scalar SlicingScenario.node[16].nic.phy80211p UnderSensitivityPackets 1495
scalar SlicingScenario.node[16].nic.mac1609_4 ReceivedUnicastPackets_CCH 0
scalar SlicingScenario.node[16].nic.mac1609_4 ReceivedBroadcasts_CCH 0
scalar SlicingScenario.node[16].nic.mac1609_4 SentPackets_CCH 0
scalar SlicingScenario.node[16].nic.mac1609_4 SentAcknowledgements_CCH 0
scalar SlicingScenario.node[16].nic.mac1609_4 SNIRLostPackets_CCH 0
scalar SlicingScenario.node[16].nic.mac1609_4 RXTXLostPackets_CCH 0
scalar SlicingScenario.node[16].nic.mac1609_4 TotalLostPackets_CCH 0
scalar SlicingScenario.node[16].nic.mac1609_4 DroppedPacketsInMac_CCH 0
scalar SlicingScenario.node[16].nic.mac1609_4 TooLittleTime_CCH 0
scalar SlicingScenario.node[16].nic.mac1609_4 TimesIntoBackoff_CCH 0
scalar SlicingScenario.node[16].nic.mac1609_4 SlotsBackoff_CCH 0
scalar SlicingScenario.node[16].nic.mac1609_4 NumInternalContention_CCH 0
scalar SlicingScenario.node[16].nic.mac1609_4 RemainingPacketsInEDCA_CCH 0
scalar SlicingScenario.node[16].nic.mac1609_4 totalBusyTime_CCH 0
scalar SlicingScenario.node[16].nic.mac1609_4 ReceivedUnicastPackets_SCH 0
scalar SlicingScenario.node[16].nic.mac1609_4 ReceivedBroadcasts_SCH 18659
scalar SlicingScenario.node[16].nic.mac1609_4 SentPackets_SCH 0
scalar SlicingScenario.node[16].nic.mac1609_4 SentAcknowledgements_SCH 0
scalar SlicingScenario.node[16].nic.mac1609_4 SNIRLostPackets_SCH 0
scalar SlicingScenario.node[16].nic.mac1609_4 RXTXLostPackets_SCH 0
scalar SlicingScenario.node[16].nic.mac1609_4 TotalLostPackets_SCH 0
scalar SlicingScenario.node[16].nic.mac1609_4 DroppedPacketsInMac_SCH 0
scalar SlicingScenario.node[16].nic.mac1609_4 TooLittleTime_SCH 0
scalar SlicingScenario.node[16].nic.mac1609_4 TimesIntoBackoff_SCH 0
scalar SlicingScenario.node[16].nic.mac1609_4 SlotsBackoff_SCH 0
scalar SlicingScenario.node[16].nic.mac1609_4 NumInternalContention_SCH 0
scalar SlicingScenario.node[16].nic.mac1609_4 RemainingPacketsInEDCA_SCH 0
scalar SlicingScenario.node[16].nic.mac1609_4 totalBusyTime_SCH 36.98472
scalar SlicingScenario.node[16].veinsmobility startTime 7
scalar SlicingScenario.node[16].veinsmobility totalTime 94
scalar SlicingScenario.node[16].veinsmobility stopTime 102
scalar SlicingScenario.node[16].veinsmobility minSpeed 5.1915536283292
scalar SlicingScenario.node[16].veinsmobility maxSpeed 11.108607537593
scalar SlicingScenario.node[16].veinsmobility totalDistance 983.53083651998
scalar SlicingScenario.node[16].veinsmobility totalCO2Emission 174.52187601209
scalar SlicingScenario.node[20].appl txPackets_CCH_133 0
scalar SlicingScenario.node[20].appl rxPackets_CCH_133 0
scalar SlicingScenario.node[20].appl rxNeighborPackets_CCH_133 0
scalar SlicingScenario.node[20].appl meanDelay_CCH_133 0
scalar SlicingScenario.node[20].appl meanJitter_CCH_133 0
scalar SlicingScenario.node[20].appl meanRxPacketSize_CCH_133 0
scalar SlicingScenario.node[20].appl meanTxPacketSize_CCH_133 0
scalar SlicingScenario.node[20].appl meanRxThroughput_CCH_133 0
scalar SlicingScenario.node[20].appl meanTxThroughput_CCH_133 0
scalar SlicingScenario.node[20].appl rxTimeOfService_CCH_133 0
scalar SlicingScenario.node[20].appl txTimeOfService_CCH_133 0
scalar SlicingScenario.node[20].appl txPackets_SCH_40_133 0
scalar SlicingScenario.node[20].appl rxPackets_SCH_40_133 0
scalar SlicingScenario.node[20].appl rxNeighborPackets_SCH_40_133 2697
scalar SlicingScenario.node[20].appl meanDelay_SCH_40_133 0
scalar SlicingScenario.node[20].appl meanJitter_SCH_40_133 0
scalar SlicingScenario.node[20].appl meanRxPacketSize_SCH_40_133 0
scalar SlicingScenario.node[20].appl meanTxPacketSize_SCH_40_133 0
scalar SlicingScenario.node[20].appl meanRxThroughput_SCH_40_133 0
scalar SlicingScenario.node[20].appl meanTxThroughput_SCH_40_133 0
scalar SlicingScenario.node[20].appl rxTimeOfService_SCH_40_133 0
scalar SlicingScenario.node[20].appl txTimeOfService_SCH_40_133 0
scalar SlicingScenario.node[20].nic.phy80211p busyTime 0.38763778723406
scalar SlicingScenario.node[20].nic.phy80211p ncollisions 0
scalar SlicingScenario.node[20].nic.phy80211p UnderSensitivityPackets 1707
scalar SlicingScenario.node[20].nic.mac1609_4 ReceivedUnicastPackets_CCH 0
scalar SlicingScenario.node[20].nic.mac1609_4 ReceivedBroadcasts_CCH 0
scalar SlicingScenario.node[20].nic.mac1609_4 SentPackets_CCH 0
scalar SlicingScenario.node[20].nic.mac1609_4 SentAcknowledgements_CCH 0
scalar SlicingScenario.node[20].nic.mac1609_4 SNIRLostPackets_CCH 0
scalar SlicingScenario.node[20].nic.mac1609_4 RXTXLostPackets_CCH 0
scalar SlicingScenario.node[20].nic.mac1609_4 TotalLostPackets_CCH 0
scalar SlicingScenario.node[20].nic.mac1609_4 DroppedPacketsInMac_CCH 0
scalar SlicingScenario.node[20].nic.mac1609_4 TooLittleTime_CCH 0
scalar SlicingScenario.node[20].nic.mac1609_4 TimesIntoBackoff_CCH 0
scalar SlicingScenario.node[20].nic.mac1609_4 SlotsBackoff_CCH 0
scalar SlicingScenario.node[20].nic.mac1609_4 NumInternalContention_CCH 0
scalar SlicingScenario.node[20].nic.mac1609_4 RemainingPacketsInEDCA_CCH 0
scalar SlicingScenario.node[20].nic.mac1609_4 totalBusyTime_CCH 0
scalar SlicingScenario.node[20].nic.mac1609_4 ReceivedUnicastPackets_SCH 0
scalar SlicingScenario.node[20].nic.mac1609_4 ReceivedBroadcasts_SCH 18384
scalar SlicingScenario.node[20].nic.mac1609_4 SentPackets_SCH 0
scalar SlicingScenario.node[20].nic.mac1609_4 SentAcknowledgements_SCH 0
scalar SlicingScenario.node[20].nic.mac1609_4 SNIRLostPackets_SCH 0
scalar SlicingScenario.node[20].nic.mac1609_4 RXTXLostPackets_SCH 0
scalar SlicingScenario.node[20].nic.mac1609_4 TotalLostPackets_SCH 0
scalar SlicingScenario.node[20].nic.mac1609_4 DroppedPacketsInMac_SCH 0
scalar SlicingScenario.node[20].nic.mac1609_4 TooLittleTime_SCH 0
scalar SlicingScenario.node[20].nic.mac1609_4 TimesIntoBackoff_SCH 0
scalar SlicingScenario.node[20].nic.mac1609_4 SlotsBackoff_SCH 0
scalar SlicingScenario.node[20].nic.mac1609_4 NumInternalContention_SCH 0
scalar SlicingScenario.node[20].nic.mac1609_4 RemainingPacketsInEDCA_SCH 0
scalar SlicingScenario.node[20].nic.mac1609_4 totalBusyTime_SCH 36.437952
scalar SlicingScenario.node[20].veinsmobility startTime 9
scalar SlicingScenario.node[20].veinsmobility totalTime 93
scalar SlicingScenario.node[20].veinsmobility stopTime 103
scalar SlicingScenario.node[20].veinsmobility minSpeed 4.970902832627
scalar SlicingScenario.node[20].veinsmobility maxSpeed 11.109767180649
[...]
scalar SlicingScenario.rsu[0].appl meanRxPacketSize_SCH_41_1897 0
scalar SlicingScenario.rsu[0].appl meanTxPacketSize_SCH_41_1897 0
scalar SlicingScenario.rsu[0].appl meanRxThroughput_SCH_41_1897 0
scalar SlicingScenario.rsu[0].appl meanTxThroughput_SCH_41_1897 0
scalar SlicingScenario.rsu[0].appl rxTimeOfService_SCH_41_1897 0
scalar SlicingScenario.rsu[0].appl txTimeOfService_SCH_41_1897 0
scalar SlicingScenario.rsu[0].appl txPackets_SCH_41_1915 0
scalar SlicingScenario.rsu[0].appl rxPackets_SCH_41_1915 0
scalar SlicingScenario.rsu[0].appl rxNeighborPackets_SCH_41_1915 0
scalar SlicingScenario.rsu[0].appl meanDelay_SCH_41_1915 0
scalar SlicingScenario.rsu[0].appl meanJitter_SCH_41_1915 0
scalar SlicingScenario.rsu[0].appl meanRxPacketSize_SCH_41_1915 0
scalar SlicingScenario.rsu[0].appl meanTxPacketSize_SCH_41_1915 0
scalar SlicingScenario.rsu[0].appl meanRxThroughput_SCH_41_1915 0
scalar SlicingScenario.rsu[0].appl meanTxThroughput_SCH_41_1915 0
scalar SlicingScenario.rsu[0].appl rxTimeOfService_SCH_41_1915 0
scalar SlicingScenario.rsu[0].appl txTimeOfService_SCH_41_1915 0
scalar SlicingScenario.rsu[0].appl txPackets_SCH_41_1939 0
scalar SlicingScenario.rsu[0].appl rxPackets_SCH_41_1939 0
scalar SlicingScenario.rsu[0].appl rxNeighborPackets_SCH_41_1939 0
scalar SlicingScenario.rsu[0].appl meanDelay_SCH_41_1939 0
scalar SlicingScenario.rsu[0].appl meanJitter_SCH_41_1939 0
scalar SlicingScenario.rsu[0].appl meanRxPacketSize_SCH_41_1939 0
scalar SlicingScenario.rsu[0].appl meanTxPacketSize_SCH_41_1939 0
scalar SlicingScenario.rsu[0].appl meanRxThroughput_SCH_41_1939 0
scalar SlicingScenario.rsu[0].appl meanTxThroughput_SCH_41_1939 0
scalar SlicingScenario.rsu[0].appl rxTimeOfService_SCH_41_1939 0
scalar SlicingScenario.rsu[0].appl txTimeOfService_SCH_41_1939 0
scalar SlicingScenario.rsu[0].appl txPackets_SCH_41_1951 0
scalar SlicingScenario.rsu[0].appl rxPackets_SCH_41_1951 0
scalar SlicingScenario.rsu[0].appl rxNeighborPackets_SCH_41_1951 0
scalar SlicingScenario.rsu[0].appl meanDelay_SCH_41_1951 0
scalar SlicingScenario.rsu[0].appl meanJitter_SCH_41_1951 0
scalar SlicingScenario.rsu[0].appl meanRxPacketSize_SCH_41_1951 0
scalar SlicingScenario.rsu[0].appl meanTxPacketSize_SCH_41_1951 0
scalar SlicingScenario.rsu[0].appl meanRxThroughput_SCH_41_1951 0
scalar SlicingScenario.rsu[0].appl meanTxThroughput_SCH_41_1951 0
scalar SlicingScenario.rsu[0].appl rxTimeOfService_SCH_41_1951 0
scalar SlicingScenario.rsu[0].appl txTimeOfService_SCH_41_1951 0
scalar SlicingScenario.rsu[0].appl txPackets_SCH_41_1957 0
scalar SlicingScenario.rsu[0].appl rxPackets_SCH_41_1957 0
scalar SlicingScenario.rsu[0].appl rxNeighborPackets_SCH_41_1957 0
scalar SlicingScenario.rsu[0].appl meanDelay_SCH_41_1957 0
scalar SlicingScenario.rsu[0].appl meanJitter_SCH_41_1957 0
scalar SlicingScenario.rsu[0].appl meanRxPacketSize_SCH_41_1957 0
scalar SlicingScenario.rsu[0].appl meanTxPacketSize_SCH_41_1957 0
scalar SlicingScenario.rsu[0].appl meanRxThroughput_SCH_41_1957 0
scalar SlicingScenario.rsu[0].appl meanTxThroughput_SCH_41_1957 0
scalar SlicingScenario.rsu[0].appl rxTimeOfService_SCH_41_1957 0
scalar SlicingScenario.rsu[0].appl txTimeOfService_SCH_41_1957 0
scalar SlicingScenario.rsu[0].appl txPackets_SCH_41_1969 0
scalar SlicingScenario.rsu[0].appl rxPackets_SCH_41_1969 0
scalar SlicingScenario.rsu[0].appl rxNeighborPackets_SCH_41_1969 0
scalar SlicingScenario.rsu[0].appl meanDelay_SCH_41_1969 0
scalar SlicingScenario.rsu[0].appl meanJitter_SCH_41_1969 0
scalar SlicingScenario.rsu[0].appl meanRxPacketSize_SCH_41_1969 0
scalar SlicingScenario.rsu[0].appl meanTxPacketSize_SCH_41_1969 0
scalar SlicingScenario.rsu[0].appl meanRxThroughput_SCH_41_1969 0
scalar SlicingScenario.rsu[0].appl meanTxThroughput_SCH_41_1969 0
scalar SlicingScenario.rsu[0].appl rxTimeOfService_SCH_41_1969 0
scalar SlicingScenario.rsu[0].appl txTimeOfService_SCH_41_1969 0
scalar SlicingScenario.rsu[0].appl txPackets_SCH_41_1975 0
scalar SlicingScenario.rsu[0].appl rxPackets_SCH_41_1975 0
scalar SlicingScenario.rsu[0].appl rxNeighborPackets_SCH_41_1975 0
scalar SlicingScenario.rsu[0].appl meanDelay_SCH_41_1975 0
scalar SlicingScenario.rsu[0].appl meanJitter_SCH_41_1975 0
scalar SlicingScenario.rsu[0].appl meanRxPacketSize_SCH_41_1975 0
scalar SlicingScenario.rsu[0].appl meanTxPacketSize_SCH_41_1975 0
scalar SlicingScenario.rsu[0].appl meanRxThroughput_SCH_41_1975 0
scalar SlicingScenario.rsu[0].appl meanTxThroughput_SCH_41_1975 0
scalar SlicingScenario.rsu[0].appl rxTimeOfService_SCH_41_1975 0
scalar SlicingScenario.rsu[0].appl txTimeOfService_SCH_41_1975 0
scalar SlicingScenario.rsu[0].appl txPackets_SCH_41_1981 0
scalar SlicingScenario.rsu[0].appl rxPackets_SCH_41_1981 0
scalar SlicingScenario.rsu[0].appl rxNeighborPackets_SCH_41_1981 0
scalar SlicingScenario.rsu[0].appl meanDelay_SCH_41_1981 0
scalar SlicingScenario.rsu[0].appl meanJitter_SCH_41_1981 0
scalar SlicingScenario.rsu[0].appl meanRxPacketSize_SCH_41_1981 0
scalar SlicingScenario.rsu[0].appl meanTxPacketSize_SCH_41_1981 0
scalar SlicingScenario.rsu[0].appl meanRxThroughput_SCH_41_1981 0
scalar SlicingScenario.rsu[0].appl meanTxThroughput_SCH_41_1981 0
scalar SlicingScenario.rsu[0].appl rxTimeOfService_SCH_41_1981 0
scalar SlicingScenario.rsu[0].appl txTimeOfService_SCH_41_1981 0
scalar SlicingScenario.rsu[0].appl txPackets_SCH_41_1987 0
scalar SlicingScenario.rsu[0].appl rxPackets_SCH_41_1987 0
scalar SlicingScenario.rsu[0].appl rxNeighborPackets_SCH_41_1987 0
scalar SlicingScenario.rsu[0].appl meanDelay_SCH_41_1987 0
scalar SlicingScenario.rsu[0].appl meanJitter_SCH_41_1987 0
scalar SlicingScenario.rsu[0].appl meanRxPacketSize_SCH_41_1987 0
scalar SlicingScenario.rsu[0].appl meanTxPacketSize_SCH_41_1987 0
scalar SlicingScenario.rsu[0].appl meanRxThroughput_SCH_41_1987 0
scalar SlicingScenario.rsu[0].appl meanTxThroughput_SCH_41_1987 0
scalar SlicingScenario.rsu[0].appl rxTimeOfService_SCH_41_1987 0
scalar SlicingScenario.rsu[0].appl txTimeOfService_SCH_41_1987 0
scalar SlicingScenario.rsu[0].appl txPackets_SCH_41_2005 0
scalar SlicingScenario.rsu[0].appl rxPackets_SCH_41_2005 0
scalar SlicingScenario.rsu[0].appl rxNeighborPackets_SCH_41_2005 0
scalar SlicingScenario.rsu[0].appl meanDelay_SCH_41_2005 0
scalar SlicingScenario.rsu[0].appl meanJitter_SCH_41_2005 0
scalar SlicingScenario.rsu[0].appl meanRxPacketSize_SCH_41_2005 0
scalar SlicingScenario.rsu[0].appl meanTxPacketSize_SCH_41_2005 0
scalar SlicingScenario.rsu[0].appl meanRxThroughput_SCH_41_2005 0
scalar SlicingScenario.rsu[0].appl meanTxThroughput_SCH_41_2005 0
scalar SlicingScenario.rsu[0].appl rxTimeOfService_SCH_41_2005 0
scalar SlicingScenario.rsu[0].appl txTimeOfService_SCH_41_2005 0
scalar SlicingScenario.rsu[0].appl txPackets_SCH_41_2011 0
scalar SlicingScenario.rsu[0].appl rxPackets_SCH_41_2011 0
scalar SlicingScenario.rsu[0].appl rxNeighborPackets_SCH_41_2011 0
scalar SlicingScenario.rsu[0].appl meanDelay_SCH_41_2011 0
scalar SlicingScenario.rsu[0].appl meanJitter_SCH_41_2011 0
scalar SlicingScenario.rsu[0].appl meanRxPacketSize_SCH_41_2011 0
scalar SlicingScenario.rsu[0].appl meanTxPacketSize_SCH_41_2011 0
scalar SlicingScenario.rsu[0].appl meanRxThroughput_SCH_41_2011 0
scalar SlicingScenario.rsu[0].appl meanTxThroughput_SCH_41_2011 0
scalar SlicingScenario.rsu[0].appl rxTimeOfService_SCH_41_2011 0
scalar SlicingScenario.rsu[0].appl txTimeOfService_SCH_41_2011 0
scalar SlicingScenario.rsu[0].appl txPackets_SCH_41_2017 0
scalar SlicingScenario.rsu[0].appl rxPackets_SCH_41_2017 0
scalar SlicingScenario.rsu[0].appl rxNeighborPackets_SCH_41_2017 0
scalar SlicingScenario.rsu[0].appl meanDelay_SCH_41_2017 0
scalar SlicingScenario.rsu[0].appl meanJitter_SCH_41_2017 0
scalar SlicingScenario.rsu[0].appl meanRxPacketSize_SCH_41_2017 0
scalar SlicingScenario.rsu[0].appl meanTxPacketSize_SCH_41_2017 0
scalar SlicingScenario.rsu[0].appl meanRxThroughput_SCH_41_2017 0
scalar SlicingScenario.rsu[0].appl meanTxThroughput_SCH_41_2017 0
scalar SlicingScenario.rsu[0].appl rxTimeOfService_SCH_41_2017 0
scalar SlicingScenario.rsu[0].appl txTimeOfService_SCH_41_2017 0
scalar SlicingScenario.rsu[0].appl txPackets_SCH_41_2023 0
scalar SlicingScenario.rsu[0].appl rxPackets_SCH_41_2023 0
scalar SlicingScenario.rsu[0].appl rxNeighborPackets_SCH_41_2023 0
scalar SlicingScenario.rsu[0].appl meanDelay_SCH_41_2023 0
scalar SlicingScenario.rsu[0].appl meanJitter_SCH_41_2023 0
scalar SlicingScenario.rsu[0].appl meanRxPacketSize_SCH_41_2023 0
scalar SlicingScenario.rsu[0].appl meanTxPacketSize_SCH_41_2023 0
scalar SlicingScenario.rsu[0].appl meanRxThroughput_SCH_41_2023 0
scalar SlicingScenario.rsu[0].appl meanTxThroughput_SCH_41_2023 0
scalar SlicingScenario.rsu[0].appl rxTimeOfService_SCH_41_2023 0
scalar SlicingScenario.rsu[0].appl txTimeOfService_SCH_41_2023 0
scalar SlicingScenario.rsu[0].appl txPackets_SCH_41_2029 0
scalar SlicingScenario.rsu[0].appl rxPackets_SCH_41_2029 0
scalar SlicingScenario.rsu[0].appl rxNeighborPackets_SCH_41_2029 0
scalar SlicingScenario.rsu[0].appl meanDelay_SCH_41_2029 0
scalar SlicingScenario.rsu[0].appl meanJitter_SCH_41_2029 0
scalar SlicingScenario.rsu[0].appl meanRxPacketSize_SCH_41_2029 0
scalar SlicingScenario.rsu[0].appl meanTxPacketSize_SCH_41_2029 0
scalar SlicingScenario.rsu[0].appl meanRxThroughput_SCH_41_2029 0
scalar SlicingScenario.rsu[0].appl meanTxThroughput_SCH_41_2029 0
scalar SlicingScenario.rsu[0].appl rxTimeOfService_SCH_41_2029 0
scalar SlicingScenario.rsu[0].appl txTimeOfService_SCH_41_2029 0
scalar SlicingScenario.rsu[0].appl txPackets_SCH_41_2035 0
scalar SlicingScenario.rsu[0].appl rxPackets_SCH_41_2035 0
scalar SlicingScenario.rsu[0].appl rxNeighborPackets_SCH_41_2035 0
scalar SlicingScenario.rsu[0].appl meanDelay_SCH_41_2035 0
scalar SlicingScenario.rsu[0].appl meanJitter_SCH_41_2035 0
scalar SlicingScenario.rsu[0].appl meanRxPacketSize_SCH_41_2035 0
scalar SlicingScenario.rsu[0].appl meanTxPacketSize_SCH_41_2035 0
scalar SlicingScenario.rsu[0].appl meanRxThroughput_SCH_41_2035 0
scalar SlicingScenario.rsu[0].appl meanTxThroughput_SCH_41_2035 0
scalar SlicingScenario.rsu[0].appl rxTimeOfService_SCH_41_2035 0
scalar SlicingScenario.rsu[0].appl txTimeOfService_SCH_41_2035 0
scalar SlicingScenario.rsu[0].appl txPackets_SCH_41_2041 0
scalar SlicingScenario.rsu[0].appl rxPackets_SCH_41_2041 0
scalar SlicingScenario.rsu[0].appl rxNeighborPackets_SCH_41_2041 0
scalar SlicingScenario.rsu[0].appl meanDelay_SCH_41_2041 0
scalar SlicingScenario.rsu[0].appl meanJitter_SCH_41_2041 0
scalar SlicingScenario.rsu[0].appl meanRxPacketSize_SCH_41_2041 0
scalar SlicingScenario.rsu[0].appl meanTxPacketSize_SCH_41_2041 0
scalar SlicingScenario.rsu[0].appl meanRxThroughput_SCH_41_2041 0
scalar SlicingScenario.rsu[0].appl meanTxThroughput_SCH_41_2041 0
scalar SlicingScenario.rsu[0].appl rxTimeOfService_SCH_41_2041 0
scalar SlicingScenario.rsu[0].appl txTimeOfService_SCH_41_2041 0
scalar SlicingScenario.rsu[0].appl txPackets_SCH_41_2047 0
scalar SlicingScenario.rsu[0].appl rxPackets_SCH_41_2047 0
scalar SlicingScenario.rsu[0].appl rxNeighborPackets_SCH_41_2047 0
scalar SlicingScenario.rsu[0].appl meanDelay_SCH_41_2047 0
scalar SlicingScenario.rsu[0].appl meanJitter_SCH_41_2047 0
scalar SlicingScenario.rsu[0].appl meanRxPacketSize_SCH_41_2047 0
scalar SlicingScenario.rsu[0].appl meanTxPacketSize_SCH_41_2047 0
scalar SlicingScenario.rsu[0].appl meanRxThroughput_SCH_41_2047 0
scalar SlicingScenario.rsu[0].appl meanTxThroughput_SCH_41_2047 0
scalar SlicingScenario.rsu[0].appl rxTimeOfService_SCH_41_2047 0
scalar SlicingScenario.rsu[0].appl txTimeOfService_SCH_41_2047 0
scalar SlicingScenario.rsu[0].appl txPackets_SCH_41_2053 0
scalar SlicingScenario.rsu[0].appl rxPackets_SCH_41_2053 0
scalar SlicingScenario.rsu[0].appl rxNeighborPackets_SCH_41_2053 0
scalar SlicingScenario.rsu[0].appl meanDelay_SCH_41_2053 0
scalar SlicingScenario.rsu[0].appl meanJitter_SCH_41_2053 0
scalar SlicingScenario.rsu[0].appl meanRxPacketSize_SCH_41_2053 0
scalar SlicingScenario.rsu[0].appl meanTxPacketSize_SCH_41_2053 0
scalar SlicingScenario.rsu[0].appl meanRxThroughput_SCH_41_2053 0
scalar SlicingScenario.rsu[0].appl meanTxThroughput_SCH_41_2053 0
scalar SlicingScenario.rsu[0].appl rxTimeOfService_SCH_41_2053 0
scalar SlicingScenario.rsu[0].appl txTimeOfService_SCH_41_2053 0
scalar SlicingScenario.rsu[0].appl txPackets_SCH_41_2101 0
scalar SlicingScenario.rsu[0].appl rxPackets_SCH_41_2101 0
scalar SlicingScenario.rsu[0].appl rxNeighborPackets_SCH_41_2101 0
scalar SlicingScenario.rsu[0].appl meanDelay_SCH_41_2101 0
scalar SlicingScenario.rsu[0].appl meanJitter_SCH_41_2101 0
scalar SlicingScenario.rsu[0].appl meanRxPacketSize_SCH_41_2101 0
scalar SlicingScenario.rsu[0].appl meanTxPacketSize_SCH_41_2101 0
scalar SlicingScenario.rsu[0].appl meanRxThroughput_SCH_41_2101 0
scalar SlicingScenario.rsu[0].appl meanTxThroughput_SCH_41_2101 0
scalar SlicingScenario.rsu[0].appl rxTimeOfService_SCH_41_2101 0
scalar SlicingScenario.rsu[0].appl txTimeOfService_SCH_41_2101 0
scalar SlicingScenario.rsu[0].appl txPackets_SCH_41_2143 0
scalar SlicingScenario.rsu[0].appl rxPackets_SCH_41_2143 0
scalar SlicingScenario.rsu[0].appl rxNeighborPackets_SCH_41_2143 0
scalar SlicingScenario.rsu[0].appl meanDelay_SCH_41_2143 0
scalar SlicingScenario.rsu[0].appl meanJitter_SCH_41_2143 0
scalar SlicingScenario.rsu[0].appl meanRxPacketSize_SCH_41_2143 0
scalar SlicingScenario.rsu[0].appl meanTxPacketSize_SCH_41_2143 0
scalar SlicingScenario.rsu[0].appl meanRxThroughput_SCH_41_2143 0
scalar SlicingScenario.rsu[0].appl meanTxThroughput_SCH_41_2143 0
scalar SlicingScenario.rsu[0].appl rxTimeOfService_SCH_41_2143 0
scalar SlicingScenario.rsu[0].appl txTimeOfService_SCH_41_2143 0
scalar SlicingScenario.rsu[0].appl txPackets_SCH_41_2149 0
scalar SlicingScenario.rsu[0].appl rxPackets_SCH_41_2149 0
scalar SlicingScenario.rsu[0].appl rxNeighborPackets_SCH_41_2149 0
scalar SlicingScenario.rsu[0].appl meanDelay_SCH_41_2149 0
scalar SlicingScenario.rsu[0].appl meanJitter_SCH_41_2149 0
scalar SlicingScenario.rsu[0].appl meanRxPacketSize_SCH_41_2149 0
scalar SlicingScenario.rsu[0].appl meanTxPacketSize_SCH_41_2149 0
scalar SlicingScenario.rsu[0].appl meanRxThroughput_SCH_41_2149 0
scalar SlicingScenario.rsu[0].appl meanTxThroughput_SCH_41_2149 0
scalar SlicingScenario.rsu[0].appl rxTimeOfService_SCH_41_2149 0
scalar SlicingScenario.rsu[0].appl txTimeOfService_SCH_41_2149 0
scalar SlicingScenario.rsu[0].appl txPackets_SCH_41_2161 0
scalar SlicingScenario.rsu[0].appl rxPackets_SCH_41_2161 0
scalar SlicingScenario.rsu[0].appl rxNeighborPackets_SCH_41_2161 0
scalar SlicingScenario.rsu[0].appl meanDelay_SCH_41_2161 0
scalar SlicingScenario.rsu[0].appl meanJitter_SCH_41_2161 0
scalar SlicingScenario.rsu[0].appl meanRxPacketSize_SCH_41_2161 0
scalar SlicingScenario.rsu[0].appl meanTxPacketSize_SCH_41_2161 0
scalar SlicingScenario.rsu[0].appl meanRxThroughput_SCH_41_2161 0
scalar SlicingScenario.rsu[0].appl meanTxThroughput_SCH_41_2161 0
scalar SlicingScenario.rsu[0].appl rxTimeOfService_SCH_41_2161 0
scalar SlicingScenario.rsu[0].appl txTimeOfService_SCH_41_2161 0
scalar SlicingScenario.rsu[0].appl txPackets_SCH_41_2173 0
scalar SlicingScenario.rsu[0].appl rxPackets_SCH_41_2173 0
scalar SlicingScenario.rsu[0].appl rxNeighborPackets_SCH_41_2173 0
scalar SlicingScenario.rsu[0].appl meanDelay_SCH_41_2173 0
scalar SlicingScenario.rsu[0].appl meanJitter_SCH_41_2173 0
scalar SlicingScenario.rsu[0].appl meanRxPacketSize_SCH_41_2173 0
scalar SlicingScenario.rsu[0].appl meanTxPacketSize_SCH_41_2173 0
scalar SlicingScenario.rsu[0].appl meanRxThroughput_SCH_41_2173 0
scalar SlicingScenario.rsu[0].appl meanTxThroughput_SCH_41_2173 0
scalar SlicingScenario.rsu[0].appl rxTimeOfService_SCH_41_2173 0
scalar SlicingScenario.rsu[0].appl txTimeOfService_SCH_41_2173 0
scalar SlicingScenario.rsu[0].appl txPackets_SCH_41_2179 0
scalar SlicingScenario.rsu[0].appl rxPackets_SCH_41_2179 0
scalar SlicingScenario.rsu[0].appl rxNeighborPackets_SCH_41_2179 0
scalar SlicingScenario.rsu[0].appl meanDelay_SCH_41_2179 0
scalar SlicingScenario.rsu[0].appl meanJitter_SCH_41_2179 0
scalar SlicingScenario.rsu[0].appl meanRxPacketSize_SCH_41_2179 0
scalar SlicingScenario.rsu[0].appl meanTxPacketSize_SCH_41_2179 0
scalar SlicingScenario.rsu[0].appl meanRxThroughput_SCH_41_2179 0
scalar SlicingScenario.rsu[0].appl meanTxThroughput_SCH_41_2179 0
scalar SlicingScenario.rsu[0].appl rxTimeOfService_SCH_41_2179 0
scalar SlicingScenario.rsu[0].appl txTimeOfService_SCH_41_2179 0
scalar SlicingScenario.rsu[0].appl txPackets_SCH_41_2185 0
scalar SlicingScenario.rsu[0].appl rxPackets_SCH_41_2185 0
scalar SlicingScenario.rsu[0].appl rxNeighborPackets_SCH_41_2185 0
scalar SlicingScenario.rsu[0].appl meanDelay_SCH_41_2185 0
scalar SlicingScenario.rsu[0].appl meanJitter_SCH_41_2185 0
scalar SlicingScenario.rsu[0].appl meanRxPacketSize_SCH_41_2185 0
scalar SlicingScenario.rsu[0].appl meanTxPacketSize_SCH_41_2185 0
scalar SlicingScenario.rsu[0].appl meanRxThroughput_SCH_41_2185 0
scalar SlicingScenario.rsu[0].appl meanTxThroughput_SCH_41_2185 0
scalar SlicingScenario.rsu[0].appl rxTimeOfService_SCH_41_2185 0
scalar SlicingScenario.rsu[0].appl txTimeOfService_SCH_41_2185 0
scalar SlicingScenario.rsu[0].appl txPackets_SCH_41_2209 0
scalar SlicingScenario.rsu[0].appl rxPackets_SCH_41_2209 0
scalar SlicingScenario.rsu[0].appl rxNeighborPackets_SCH_41_2209 0
scalar SlicingScenario.rsu[0].appl meanDelay_SCH_41_2209 0
scalar SlicingScenario.rsu[0].appl meanJitter_SCH_41_2209 0
scalar SlicingScenario.rsu[0].appl meanRxPacketSize_SCH_41_2209 0
scalar SlicingScenario.rsu[0].appl meanTxPacketSize_SCH_41_2209 0
scalar SlicingScenario.rsu[0].appl meanRxThroughput_SCH_41_2209 0
scalar SlicingScenario.rsu[0].appl meanTxThroughput_SCH_41_2209 0
scalar SlicingScenario.rsu[0].appl rxTimeOfService_SCH_41_2209 0
scalar SlicingScenario.rsu[0].appl txTimeOfService_SCH_41_2209 0
scalar SlicingScenario.rsu[0].nic.phy80211p busyTime 0
scalar SlicingScenario.rsu[0].nic.phy80211p ncollisions 0
scalar SlicingScenario.rsu[0].nic.phy80211p UnderSensitivityPackets 0
scalar SlicingScenario.rsu[0].nic.mac1609_4 ReceivedUnicastPackets_CCH 0
scalar SlicingScenario.rsu[0].nic.mac1609_4 ReceivedBroadcasts_CCH 0
scalar SlicingScenario.rsu[0].nic.mac1609_4 SentPackets_CCH 0
scalar SlicingScenario.rsu[0].nic.mac1609_4 SentAcknowledgements_CCH 0
scalar SlicingScenario.rsu[0].nic.mac1609_4 SNIRLostPackets_CCH 0
scalar SlicingScenario.rsu[0].nic.mac1609_4 RXTXLostPackets_CCH 0
scalar SlicingScenario.rsu[0].nic.mac1609_4 TotalLostPackets_CCH 0
scalar SlicingScenario.rsu[0].nic.mac1609_4 DroppedPacketsInMac_CCH 0
scalar SlicingScenario.rsu[0].nic.mac1609_4 TooLittleTime_CCH 0
scalar SlicingScenario.rsu[0].nic.mac1609_4 TimesIntoBackoff_CCH 0
scalar SlicingScenario.rsu[0].nic.mac1609_4 SlotsBackoff_CCH 0
scalar SlicingScenario.rsu[0].nic.mac1609_4 NumInternalContention_CCH 0
scalar SlicingScenario.rsu[0].nic.mac1609_4 RemainingPacketsInEDCA_CCH 0
scalar SlicingScenario.rsu[0].nic.mac1609_4 totalBusyTime_CCH 0
scalar SlicingScenario.rsu[0].nic.mac1609_4 ReceivedUnicastPackets_SCH 0
scalar SlicingScenario.rsu[0].nic.mac1609_4 ReceivedBroadcasts_SCH 0
scalar SlicingScenario.rsu[0].nic.mac1609_4 SentPackets_SCH 62314
scalar SlicingScenario.rsu[0].nic.mac1609_4 SentAcknowledgements_SCH 0
scalar SlicingScenario.rsu[0].nic.mac1609_4 SNIRLostPackets_SCH 0
scalar SlicingScenario.rsu[0].nic.mac1609_4 RXTXLostPackets_SCH 0
scalar SlicingScenario.rsu[0].nic.mac1609_4 TotalLostPackets_SCH 0
scalar SlicingScenario.rsu[0].nic.mac1609_4 DroppedPacketsInMac_SCH 0
scalar SlicingScenario.rsu[0].nic.mac1609_4 TooLittleTime_SCH 48993
scalar SlicingScenario.rsu[0].nic.mac1609_4 TimesIntoBackoff_SCH 64828
scalar SlicingScenario.rsu[0].nic.mac1609_4 SlotsBackoff_SCH 218636
scalar SlicingScenario.rsu[0].nic.mac1609_4 NumInternalContention_SCH 0
scalar SlicingScenario.rsu[0].nic.mac1609_4 RemainingPacketsInEDCA_SCH 524454
scalar SlicingScenario.rsu[0].nic.mac1609_4 totalBusyTime_SCH 123.700234

