version 2
run General-325-20190223-14:44:22-13498
attr configname General
attr datetime 20190223-14:44:22
attr experiment General
attr inifile omnetpp.ini
attr iterationvars "$vehicles=160, $msgSizeA=1500B, $serviceMsgInterval=2s"
attr iterationvarsf vehicles=160,msgSizeA=1500B,serviceMsgInterval=2s-
attr measurement "$vehicles=160, $msgSizeA=1500B, $serviceMsgInterval=2s"
attr network com.liborio.slicing.SlicingScenario
attr processid 13498
attr repetition 5
attr replication #5
attr resultdir results
attr runnumber 325
attr seedset 5
itervar msgSizeA 1500B
itervar serviceMsgInterval 2s
itervar vehicles 160
param **.debug false
param **.coreDebug false
param *.playgroundSizeX 1200m
param *.playgroundSizeY 1200m
param *.playgroundSizeZ 50m
param *.annotations.draw true
param *.manager.updateInterval 1s
param *.manager.host "\"localhost\""
param *.manager.port 9999
param *.manager.autoShutdown true
param *.manager.launchConfig "xmldoc(\"highway-\"+string(160)+\".launchd.xml\")"
param *.connectionManager.sendDirect true
param *.connectionManager.maxInterfDist 2600m
param *.connectionManager.drawMaxIntfDist false
param *.rsu[*].applType "\"RSUApp\""
param *.rsu[*].appl.headerLength "80 bit"
param *.rsu[*].appl.sendBeacons false
param *.rsu[*].appl.dataOnSch true
param *.rsu[*].appl.beaconInterval 1s
param *.rsu[*].appl.beaconUserPriority 7
param *.rsu[*].appl.dataUserPriority 5
param *.rsu[*].appl.entMsgADataLengthBytes 1500B
param *.rsu[*].appl.entMsgAUserPriority 4
param *.rsu[*].appl.entMsgAInterval 2s
param *.rsu[*].appl.entMsgBDataLengthBytes 1500B
param *.rsu[*].appl.entMsgBUserPriority 4
param *.rsu[*].appl.entMsgBInterval 2s
param *.rsu[*].nic.mac1609_4.useServiceChannel true
param *.rsu[*].nic.mac1609_4.txPower 20mW
param *.rsu[*].nic.mac1609_4.bitrate 6Mbps
param *.rsu[*].nic.phy80211p.sensitivity -90.00dBm
param *.rsu[0].mobility.x 515.0
param *.rsu[0].mobility.y 25.0
param *.rsu[0].mobility.z 3
param *.node[*].applType "\"VehApp\""
param *.node[*].appl.headerLength "80 bit"
param *.node[*].appl.sendBeacons false
param *.node[*].appl.dataOnSch true
param *.node[*].appl.beaconInterval 1s
param *.node[*].appl.wsaInterval 1s
param *.node[*].appl.entMsgADataLengthBits 1500B
param *.node[*].appl.entMsgAUserPriority 4
param *.node[*].appl.entMsgAInterval 2s
param *.node[*].appl.entMsgBDataLengthBits 1500B
param *.node[*].appl.entMsgBUserPriority 4
param *.node[*].appl.entMsgBInterval 2s
param *.node[*].nic.mac1609_4.useServiceChannel true
param *.node[*].nic.mac1609_4.txPower 20mW
param *.node[*].nic.mac1609_4.bitrate 6Mbps
param *.node[*].nic.phy80211p.sensitivity -90.00dBm
param *.node[*].veinsmobilityType.debug true
param *.node[*].veinsmobility.x 0
param *.node[*].veinsmobility.y 0
param *.node[*].veinsmobility.z 1.895
param *.**.nic.phy80211p.useThermalNoise true
param *.**.nic.phy80211p.thermalNoise -110dBm
param *.**.nic.phy80211p.decider "xmldoc(\"config.xml\")"
param *.**.nic.phy80211p.analogueModels "xmldoc(\"config.xml\")"
param *.**.nic.phy80211p.usePropagationDelay true
param *.**.nic.phy80211p.antenna "xmldoc(\"antenna.xml\", \"/root/Antenna[@id='monopole']\")"
param *.**.nic.phy80211p.collectCollisionStatistics true
param *.**.nic.phy80211p.allowTxDuringRx false

scalar SlicingScenario.node[0].appl txPackets_13 0
scalar SlicingScenario.node[0].appl rxPackets_13 0
scalar SlicingScenario.node[0].appl rxNeighborPackets_13 0
scalar SlicingScenario.node[0].appl meanDelay_13 0
scalar SlicingScenario.node[0].appl meanJitter_13 0
scalar SlicingScenario.node[0].appl meanRxPacketSize_13 0
scalar SlicingScenario.node[0].appl meanTxPacketSize_13 0
scalar SlicingScenario.node[0].appl meanRxThroughput_13 0
scalar SlicingScenario.node[0].appl meanTxThroughput_13 0
scalar SlicingScenario.node[0].appl rxTimeOfService_13 0
scalar SlicingScenario.node[0].appl txTimeOfService_13 0
scalar SlicingScenario.node[0].appl txPackets_40_13 0
scalar SlicingScenario.node[0].appl rxPackets_40_13 41
scalar SlicingScenario.node[0].appl rxNeighborPackets_40_13 574
scalar SlicingScenario.node[0].appl meanDelay_40_13 0.0020749787
scalar SlicingScenario.node[0].appl meanJitter_40_13 5.1993054e-05
scalar SlicingScenario.node[0].appl meanRxPacketSize_40_13 1510
scalar SlicingScenario.node[0].appl meanTxPacketSize_40_13 0
scalar SlicingScenario.node[0].appl meanRxThroughput_40_13 6190.9996914192
scalar SlicingScenario.node[0].appl meanTxThroughput_40_13 0
scalar SlicingScenario.node[0].appl rxTimeOfService_40_13 80.000003987476
scalar SlicingScenario.node[0].appl txTimeOfService_40_13 0
scalar SlicingScenario.node[0].nic.phy80211p busyTime 0.021156
scalar SlicingScenario.node[0].nic.phy80211p ncollisions 0
scalar SlicingScenario.node[0].nic.phy80211p UnderSensitivityPackets 137
scalar SlicingScenario.node[0].nic.mac1609_4 ReceivedUnicastPackets_CCH 0
scalar SlicingScenario.node[0].nic.mac1609_4 ReceivedBroadcasts_CCH 0
scalar SlicingScenario.node[0].nic.mac1609_4 SentPackets_CCH 0
scalar SlicingScenario.node[0].nic.mac1609_4 SentAcknowledgements_CCH 0
scalar SlicingScenario.node[0].nic.mac1609_4 SNIRLostPackets_CCH 0
scalar SlicingScenario.node[0].nic.mac1609_4 RXTXLostPackets_CCH 0
scalar SlicingScenario.node[0].nic.mac1609_4 TotalLostPackets_CCH 0
scalar SlicingScenario.node[0].nic.mac1609_4 DroppedPacketsInMac_CCH 0
scalar SlicingScenario.node[0].nic.mac1609_4 TooLittleTime_CCH 0
scalar SlicingScenario.node[0].nic.mac1609_4 TimesIntoBackoff_CCH 0
scalar SlicingScenario.node[0].nic.mac1609_4 SlotsBackoff_CCH 0
scalar SlicingScenario.node[0].nic.mac1609_4 NumInternalContention_CCH 0
scalar SlicingScenario.node[0].nic.mac1609_4 RemainingPacketsInEDCA_CCH 0
scalar SlicingScenario.node[0].nic.mac1609_4 totalBusyTime_CCH 0
scalar SlicingScenario.node[0].nic.mac1609_4 ReceivedUnicastPackets_SCH 0
scalar SlicingScenario.node[0].nic.mac1609_4 ReceivedBroadcasts_SCH 943
scalar SlicingScenario.node[0].nic.mac1609_4 SentPackets_SCH 0
scalar SlicingScenario.node[0].nic.mac1609_4 SentAcknowledgements_SCH 0
scalar SlicingScenario.node[0].nic.mac1609_4 SNIRLostPackets_SCH 0
scalar SlicingScenario.node[0].nic.mac1609_4 RXTXLostPackets_SCH 0
scalar SlicingScenario.node[0].nic.mac1609_4 TotalLostPackets_SCH 0
scalar SlicingScenario.node[0].nic.mac1609_4 DroppedPacketsInMac_SCH 0
scalar SlicingScenario.node[0].nic.mac1609_4 TooLittleTime_SCH 0
scalar SlicingScenario.node[0].nic.mac1609_4 TimesIntoBackoff_SCH 0
scalar SlicingScenario.node[0].nic.mac1609_4 SlotsBackoff_SCH 0
scalar SlicingScenario.node[0].nic.mac1609_4 NumInternalContention_SCH 0
scalar SlicingScenario.node[0].nic.mac1609_4 RemainingPacketsInEDCA_SCH 0
scalar SlicingScenario.node[0].nic.mac1609_4 totalBusyTime_SCH 1.946352
scalar SlicingScenario.node[0].veinsmobility startTime 1
scalar SlicingScenario.node[0].veinsmobility totalTime 91
scalar SlicingScenario.node[0].veinsmobility stopTime 93
scalar SlicingScenario.node[0].veinsmobility minSpeed 10.610140165095
scalar SlicingScenario.node[0].veinsmobility maxSpeed 11.109068625737
scalar SlicingScenario.node[0].veinsmobility totalDistance 981.10241316177
scalar SlicingScenario.node[0].veinsmobility totalCO2Emission 158.42863806553
scalar SlicingScenario.node[1].appl txPackets_19 0
scalar SlicingScenario.node[1].appl rxPackets_19 0
scalar SlicingScenario.node[1].appl rxNeighborPackets_19 0
scalar SlicingScenario.node[1].appl meanDelay_19 0
scalar SlicingScenario.node[1].appl meanJitter_19 0
scalar SlicingScenario.node[1].appl meanRxPacketSize_19 0
scalar SlicingScenario.node[1].appl meanTxPacketSize_19 0
scalar SlicingScenario.node[1].appl meanRxThroughput_19 0
scalar SlicingScenario.node[1].appl meanTxThroughput_19 0
scalar SlicingScenario.node[1].appl rxTimeOfService_19 0
scalar SlicingScenario.node[1].appl txTimeOfService_19 0
scalar SlicingScenario.node[1].appl txPackets_41_19 0
scalar SlicingScenario.node[1].appl rxPackets_41_19 42
scalar SlicingScenario.node[1].appl rxNeighborPackets_41_19 303
scalar SlicingScenario.node[1].appl meanDelay_41_19 0.002073699321
scalar SlicingScenario.node[1].appl meanJitter_41_19 5.1090245e-05
scalar SlicingScenario.node[1].appl meanRxPacketSize_41_19 1510
scalar SlicingScenario.node[1].appl meanTxPacketSize_41_19 0
scalar SlicingScenario.node[1].appl meanRxThroughput_41_19 6187.3168484278
scalar SlicingScenario.node[1].appl meanTxThroughput_41_19 0
scalar SlicingScenario.node[1].appl rxTimeOfService_41_19 82.000002978499
scalar SlicingScenario.node[1].appl txTimeOfService_41_19 0
scalar SlicingScenario.node[1].nic.phy80211p busyTime 0.022120695652174
scalar SlicingScenario.node[1].nic.phy80211p ncollisions 0
scalar SlicingScenario.node[1].nic.phy80211p UnderSensitivityPackets 95
scalar SlicingScenario.node[1].nic.mac1609_4 ReceivedUnicastPackets_CCH 0
scalar SlicingScenario.node[1].nic.mac1609_4 ReceivedBroadcasts_CCH 0
scalar SlicingScenario.node[1].nic.mac1609_4 SentPackets_CCH 0
scalar SlicingScenario.node[1].nic.mac1609_4 SentAcknowledgements_CCH 0
scalar SlicingScenario.node[1].nic.mac1609_4 SNIRLostPackets_CCH 0
scalar SlicingScenario.node[1].nic.mac1609_4 RXTXLostPackets_CCH 0
scalar SlicingScenario.node[1].nic.mac1609_4 TotalLostPackets_CCH 0
scalar SlicingScenario.node[1].nic.mac1609_4 DroppedPacketsInMac_CCH 0
scalar SlicingScenario.node[1].nic.mac1609_4 TooLittleTime_CCH 0
scalar SlicingScenario.node[1].nic.mac1609_4 TimesIntoBackoff_CCH 0
scalar SlicingScenario.node[1].nic.mac1609_4 SlotsBackoff_CCH 0
scalar SlicingScenario.node[1].nic.mac1609_4 NumInternalContention_CCH 0
scalar SlicingScenario.node[1].nic.mac1609_4 RemainingPacketsInEDCA_CCH 0
scalar SlicingScenario.node[1].nic.mac1609_4 totalBusyTime_CCH 0
scalar SlicingScenario.node[1].nic.mac1609_4 ReceivedUnicastPackets_SCH 0
scalar SlicingScenario.node[1].nic.mac1609_4 ReceivedBroadcasts_SCH 986
scalar SlicingScenario.node[1].nic.mac1609_4 SentPackets_SCH 0
scalar SlicingScenario.node[1].nic.mac1609_4 SentAcknowledgements_SCH 0
scalar SlicingScenario.node[1].nic.mac1609_4 SNIRLostPackets_SCH 0
scalar SlicingScenario.node[1].nic.mac1609_4 RXTXLostPackets_SCH 0
scalar SlicingScenario.node[1].nic.mac1609_4 TotalLostPackets_SCH 0
scalar SlicingScenario.node[1].nic.mac1609_4 DroppedPacketsInMac_SCH 0
scalar SlicingScenario.node[1].nic.mac1609_4 TooLittleTime_SCH 0
scalar SlicingScenario.node[1].nic.mac1609_4 TimesIntoBackoff_SCH 0
scalar SlicingScenario.node[1].nic.mac1609_4 SlotsBackoff_SCH 0
scalar SlicingScenario.node[1].nic.mac1609_4 NumInternalContention_SCH 0
scalar SlicingScenario.node[1].nic.mac1609_4 RemainingPacketsInEDCA_SCH 0
scalar SlicingScenario.node[1].nic.mac1609_4 totalBusyTime_SCH 2.035104
scalar SlicingScenario.node[1].veinsmobility startTime 2
scalar SlicingScenario.node[1].veinsmobility totalTime 91
scalar SlicingScenario.node[1].veinsmobility stopTime 94
scalar SlicingScenario.node[1].veinsmobility minSpeed 10.618613735787
scalar SlicingScenario.node[1].veinsmobility maxSpeed 11.102293905816
scalar SlicingScenario.node[1].veinsmobility totalDistance 977.83022963691
scalar SlicingScenario.node[1].veinsmobility totalCO2Emission 159.80079854683
scalar SlicingScenario.node[3].appl txPackets_31 0
scalar SlicingScenario.node[3].appl rxPackets_31 0
scalar SlicingScenario.node[3].appl rxNeighborPackets_31 0
scalar SlicingScenario.node[3].appl meanDelay_31 0
scalar SlicingScenario.node[3].appl meanJitter_31 0
scalar SlicingScenario.node[3].appl meanRxPacketSize_31 0
scalar SlicingScenario.node[3].appl meanTxPacketSize_31 0
scalar SlicingScenario.node[3].appl meanRxThroughput_31 0
scalar SlicingScenario.node[3].appl meanTxThroughput_31 0
scalar SlicingScenario.node[3].appl rxTimeOfService_31 0
scalar SlicingScenario.node[3].appl txTimeOfService_31 0
scalar SlicingScenario.node[3].appl txPackets_41_31 0
scalar SlicingScenario.node[3].appl rxPackets_41_31 42
scalar SlicingScenario.node[3].appl rxNeighborPackets_41_31 320
scalar SlicingScenario.node[3].appl meanDelay_41_31 0.002071229553
scalar SlicingScenario.node[3].appl meanJitter_41_31 5.0605724e-05
scalar SlicingScenario.node[3].appl meanRxPacketSize_41_31 1510
scalar SlicingScenario.node[3].appl meanTxPacketSize_41_31 0
scalar SlicingScenario.node[3].appl meanRxThroughput_41_31 6187.3170749494
scalar SlicingScenario.node[3].appl meanTxThroughput_41_31 0
scalar SlicingScenario.node[3].appl rxTimeOfService_41_31 81.999999976428
scalar SlicingScenario.node[3].appl txTimeOfService_41_31 0
scalar SlicingScenario.node[3].nic.phy80211p busyTime 0.023085391304348
scalar SlicingScenario.node[3].nic.phy80211p ncollisions 0
scalar SlicingScenario.node[3].nic.phy80211p UnderSensitivityPackets 98
scalar SlicingScenario.node[3].nic.mac1609_4 ReceivedUnicastPackets_CCH 0
scalar SlicingScenario.node[3].nic.mac1609_4 ReceivedBroadcasts_CCH 0
scalar SlicingScenario.node[3].nic.mac1609_4 SentPackets_CCH 0
scalar SlicingScenario.node[3].nic.mac1609_4 SentAcknowledgements_CCH 0
scalar SlicingScenario.node[3].nic.mac1609_4 SNIRLostPackets_CCH 0
scalar SlicingScenario.node[3].nic.mac1609_4 RXTXLostPackets_CCH 0
scalar SlicingScenario.node[3].nic.mac1609_4 TotalLostPackets_CCH 0
scalar SlicingScenario.node[3].nic.mac1609_4 DroppedPacketsInMac_CCH 0
scalar SlicingScenario.node[3].nic.mac1609_4 TooLittleTime_CCH 0
scalar SlicingScenario.node[3].nic.mac1609_4 TimesIntoBackoff_CCH 0
scalar SlicingScenario.node[3].nic.mac1609_4 SlotsBackoff_CCH 0
scalar SlicingScenario.node[3].nic.mac1609_4 NumInternalContention_CCH 0
scalar SlicingScenario.node[3].nic.mac1609_4 RemainingPacketsInEDCA_CCH 0
scalar SlicingScenario.node[3].nic.mac1609_4 totalBusyTime_CCH 0
scalar SlicingScenario.node[3].nic.mac1609_4 ReceivedUnicastPackets_SCH 0
scalar SlicingScenario.node[3].nic.mac1609_4 ReceivedBroadcasts_SCH 1029
scalar SlicingScenario.node[3].nic.mac1609_4 SentPackets_SCH 0
scalar SlicingScenario.node[3].nic.mac1609_4 SentAcknowledgements_SCH 0
scalar SlicingScenario.node[3].nic.mac1609_4 SNIRLostPackets_SCH 0
scalar SlicingScenario.node[3].nic.mac1609_4 RXTXLostPackets_SCH 0
scalar SlicingScenario.node[3].nic.mac1609_4 TotalLostPackets_SCH 0
scalar SlicingScenario.node[3].nic.mac1609_4 DroppedPacketsInMac_SCH 0
scalar SlicingScenario.node[3].nic.mac1609_4 TooLittleTime_SCH 0
scalar SlicingScenario.node[3].nic.mac1609_4 TimesIntoBackoff_SCH 0
scalar SlicingScenario.node[3].nic.mac1609_4 SlotsBackoff_SCH 0
scalar SlicingScenario.node[3].nic.mac1609_4 NumInternalContention_SCH 0
scalar SlicingScenario.node[3].nic.mac1609_4 RemainingPacketsInEDCA_SCH 0
scalar SlicingScenario.node[3].nic.mac1609_4 totalBusyTime_SCH 2.123856
scalar SlicingScenario.node[3].veinsmobility startTime 4
scalar SlicingScenario.node[3].veinsmobility totalTime 91
scalar SlicingScenario.node[3].veinsmobility stopTime 96
scalar SlicingScenario.node[3].veinsmobility minSpeed 10.622639525114
scalar SlicingScenario.node[3].veinsmobility maxSpeed 11.104990548003
scalar SlicingScenario.node[3].veinsmobility totalDistance 977.49808809525
scalar SlicingScenario.node[3].veinsmobility totalCO2Emission 159.56070430544
scalar SlicingScenario.node[2].appl txPackets_25 0
scalar SlicingScenario.node[2].appl rxPackets_25 0
scalar SlicingScenario.node[2].appl rxNeighborPackets_25 0
scalar SlicingScenario.node[2].appl meanDelay_25 0
scalar SlicingScenario.node[2].appl meanJitter_25 0
scalar SlicingScenario.node[2].appl meanRxPacketSize_25 0
scalar SlicingScenario.node[2].appl meanTxPacketSize_25 0
scalar SlicingScenario.node[2].appl meanRxThroughput_25 0
scalar SlicingScenario.node[2].appl meanTxThroughput_25 0
scalar SlicingScenario.node[2].appl rxTimeOfService_25 0
scalar SlicingScenario.node[2].appl txTimeOfService_25 0
scalar SlicingScenario.node[2].appl txPackets_40_25 0
scalar SlicingScenario.node[2].appl rxPackets_40_25 42
scalar SlicingScenario.node[2].appl rxNeighborPackets_40_25 624
scalar SlicingScenario.node[2].appl meanDelay_40_25 0.002072560789
scalar SlicingScenario.node[2].appl meanJitter_40_25 5.1103905e-05
scalar SlicingScenario.node[2].appl meanRxPacketSize_40_25 1510
scalar SlicingScenario.node[2].appl meanTxPacketSize_40_25 0
scalar SlicingScenario.node[2].appl meanRxThroughput_40_25 6187.3168436529
scalar SlicingScenario.node[2].appl meanTxThroughput_40_25 0
scalar SlicingScenario.node[2].appl rxTimeOfService_40_25 82.000003041781
scalar SlicingScenario.node[2].appl txTimeOfService_40_25 0
scalar SlicingScenario.node[2].nic.phy80211p busyTime 0.022814967741936
scalar SlicingScenario.node[2].nic.phy80211p ncollisions 0
scalar SlicingScenario.node[2].nic.phy80211p UnderSensitivityPackets 99
scalar SlicingScenario.node[2].nic.mac1609_4 ReceivedUnicastPackets_CCH 0
scalar SlicingScenario.node[2].nic.mac1609_4 ReceivedBroadcasts_CCH 0
scalar SlicingScenario.node[2].nic.mac1609_4 SentPackets_CCH 0
scalar SlicingScenario.node[2].nic.mac1609_4 SentAcknowledgements_CCH 0
scalar SlicingScenario.node[2].nic.mac1609_4 SNIRLostPackets_CCH 0
scalar SlicingScenario.node[2].nic.mac1609_4 RXTXLostPackets_CCH 0
scalar SlicingScenario.node[2].nic.mac1609_4 TotalLostPackets_CCH 0
scalar SlicingScenario.node[2].nic.mac1609_4 DroppedPacketsInMac_CCH 0
scalar SlicingScenario.node[2].nic.mac1609_4 TooLittleTime_CCH 0
scalar SlicingScenario.node[2].nic.mac1609_4 TimesIntoBackoff_CCH 0
scalar SlicingScenario.node[2].nic.mac1609_4 SlotsBackoff_CCH 0
scalar SlicingScenario.node[2].nic.mac1609_4 NumInternalContention_CCH 0
scalar SlicingScenario.node[2].nic.mac1609_4 RemainingPacketsInEDCA_CCH 0
scalar SlicingScenario.node[2].nic.mac1609_4 totalBusyTime_CCH 0
scalar SlicingScenario.node[2].nic.mac1609_4 ReceivedUnicastPackets_SCH 0
scalar SlicingScenario.node[2].nic.mac1609_4 ReceivedBroadcasts_SCH 1028
scalar SlicingScenario.node[2].nic.mac1609_4 SentPackets_SCH 0
scalar SlicingScenario.node[2].nic.mac1609_4 SentAcknowledgements_SCH 0
scalar SlicingScenario.node[2].nic.mac1609_4 SNIRLostPackets_SCH 0
scalar SlicingScenario.node[2].nic.mac1609_4 RXTXLostPackets_SCH 0
scalar SlicingScenario.node[2].nic.mac1609_4 TotalLostPackets_SCH 0
scalar SlicingScenario.node[2].nic.mac1609_4 DroppedPacketsInMac_SCH 0
scalar SlicingScenario.node[2].nic.mac1609_4 TooLittleTime_SCH 0
scalar SlicingScenario.node[2].nic.mac1609_4 TimesIntoBackoff_SCH 0
scalar SlicingScenario.node[2].nic.mac1609_4 SlotsBackoff_SCH 0
scalar SlicingScenario.node[2].nic.mac1609_4 NumInternalContention_SCH 0
scalar SlicingScenario.node[2].nic.mac1609_4 RemainingPacketsInEDCA_SCH 0
scalar SlicingScenario.node[2].nic.mac1609_4 totalBusyTime_SCH 2.121792
scalar SlicingScenario.node[2].veinsmobility startTime 3
scalar SlicingScenario.node[2].veinsmobility totalTime 92
scalar SlicingScenario.node[2].veinsmobility stopTime 96
scalar SlicingScenario.node[2].veinsmobility minSpeed 10.617312243921
scalar SlicingScenario.node[2].veinsmobility maxSpeed 11.109882842065
scalar SlicingScenario.node[2].veinsmobility totalDistance 986.31173231469
scalar SlicingScenario.node[2].veinsmobility totalCO2Emission 160.76439559392
scalar SlicingScenario.node[4].appl txPackets_37 0
scalar SlicingScenario.node[4].appl rxPackets_37 0
scalar SlicingScenario.node[4].appl rxNeighborPackets_37 0
scalar SlicingScenario.node[4].appl meanDelay_37 0
scalar SlicingScenario.node[4].appl meanJitter_37 0
scalar SlicingScenario.node[4].appl meanRxPacketSize_37 0
scalar SlicingScenario.node[4].appl meanTxPacketSize_37 0
scalar SlicingScenario.node[4].appl meanRxThroughput_37 0
scalar SlicingScenario.node[4].appl meanTxThroughput_37 0
scalar SlicingScenario.node[4].appl rxTimeOfService_37 0
scalar SlicingScenario.node[4].appl txTimeOfService_37 0
scalar SlicingScenario.node[4].appl txPackets_40_37 0
scalar SlicingScenario.node[4].appl rxPackets_40_37 41
scalar SlicingScenario.node[4].appl rxNeighborPackets_40_37 624
scalar SlicingScenario.node[4].appl meanDelay_40_37 0.002076838267
scalar SlicingScenario.node[4].appl meanJitter_40_37 5.2007049e-05
scalar SlicingScenario.node[4].appl meanRxPacketSize_40_37 1510
scalar SlicingScenario.node[4].appl meanTxPacketSize_40_37 0
scalar SlicingScenario.node[4].appl meanRxThroughput_40_37 6190.9999955933
scalar SlicingScenario.node[4].appl meanTxThroughput_40_37 0
scalar SlicingScenario.node[4].appl rxTimeOfService_40_37 80.000000056943
scalar SlicingScenario.node[4].appl txTimeOfService_40_37 0
scalar SlicingScenario.node[4].nic.phy80211p busyTime 0.022995652173913
scalar SlicingScenario.node[4].nic.phy80211p ncollisions 0
scalar SlicingScenario.node[4].nic.phy80211p UnderSensitivityPackets 147
scalar SlicingScenario.node[4].nic.mac1609_4 ReceivedUnicastPackets_CCH 0
scalar SlicingScenario.node[4].nic.mac1609_4 ReceivedBroadcasts_CCH 0
scalar SlicingScenario.node[4].nic.mac1609_4 SentPackets_CCH 0
scalar SlicingScenario.node[4].nic.mac1609_4 SentAcknowledgements_CCH 0
scalar SlicingScenario.node[4].nic.mac1609_4 SNIRLostPackets_CCH 0
scalar SlicingScenario.node[4].nic.mac1609_4 RXTXLostPackets_CCH 0
scalar SlicingScenario.node[4].nic.mac1609_4 TotalLostPackets_CCH 0
scalar SlicingScenario.node[4].nic.mac1609_4 DroppedPacketsInMac_CCH 0
scalar SlicingScenario.node[4].nic.mac1609_4 TooLittleTime_CCH 0
scalar SlicingScenario.node[4].nic.mac1609_4 TimesIntoBackoff_CCH 0
scalar SlicingScenario.node[4].nic.mac1609_4 SlotsBackoff_CCH 0
scalar SlicingScenario.node[4].nic.mac1609_4 NumInternalContention_CCH 0
scalar SlicingScenario.node[4].nic.mac1609_4 RemainingPacketsInEDCA_CCH 0
scalar SlicingScenario.node[4].nic.mac1609_4 totalBusyTime_CCH 0
scalar SlicingScenario.node[4].nic.mac1609_4 ReceivedUnicastPackets_SCH 0
scalar SlicingScenario.node[4].nic.mac1609_4 ReceivedBroadcasts_SCH 1025
scalar SlicingScenario.node[4].nic.mac1609_4 SentPackets_SCH 0
scalar SlicingScenario.node[4].nic.mac1609_4 SentAcknowledgements_SCH 0
scalar SlicingScenario.node[4].nic.mac1609_4 SNIRLostPackets_SCH 0
scalar SlicingScenario.node[4].nic.mac1609_4 RXTXLostPackets_SCH 0
scalar SlicingScenario.node[4].nic.mac1609_4 TotalLostPackets_SCH 0
scalar SlicingScenario.node[4].nic.mac1609_4 DroppedPacketsInMac_SCH 0
scalar SlicingScenario.node[4].nic.mac1609_4 TooLittleTime_SCH 0
scalar SlicingScenario.node[4].nic.mac1609_4 TimesIntoBackoff_SCH 0
scalar SlicingScenario.node[4].nic.mac1609_4 SlotsBackoff_SCH 0
scalar SlicingScenario.node[4].nic.mac1609_4 NumInternalContention_SCH 0
scalar SlicingScenario.node[4].nic.mac1609_4 RemainingPacketsInEDCA_SCH 0
scalar SlicingScenario.node[4].nic.mac1609_4 totalBusyTime_SCH 2.1156
scalar SlicingScenario.node[4].veinsmobility startTime 5
scalar SlicingScenario.node[4].veinsmobility totalTime 91
scalar SlicingScenario.node[4].veinsmobility stopTime 97
scalar SlicingScenario.node[4].veinsmobility minSpeed 10.610246018637
scalar SlicingScenario.node[4].veinsmobility maxSpeed 11.108783367919
scalar SlicingScenario.node[4].veinsmobility totalDistance 979.65377282559
scalar SlicingScenario.node[4].veinsmobility totalCO2Emission 158.85868546127
scalar SlicingScenario.node[5].appl txPackets_43 0
scalar SlicingScenario.node[5].appl rxPackets_43 0
scalar SlicingScenario.node[5].appl rxNeighborPackets_43 0
scalar SlicingScenario.node[5].appl meanDelay_43 0
scalar SlicingScenario.node[5].appl meanJitter_43 0
scalar SlicingScenario.node[5].appl meanRxPacketSize_43 0
scalar SlicingScenario.node[5].appl meanTxPacketSize_43 0
scalar SlicingScenario.node[5].appl meanRxThroughput_43 0
scalar SlicingScenario.node[5].appl meanTxThroughput_43 0
scalar SlicingScenario.node[5].appl rxTimeOfService_43 0
scalar SlicingScenario.node[5].appl txTimeOfService_43 0
scalar SlicingScenario.node[5].appl txPackets_40_43 0
scalar SlicingScenario.node[5].appl rxPackets_40_43 41
scalar SlicingScenario.node[5].appl rxNeighborPackets_40_43 650
scalar SlicingScenario.node[5].appl meanDelay_40_43 0.002076789681
scalar SlicingScenario.node[5].appl meanJitter_40_43 5.2006846e-05
scalar SlicingScenario.node[5].appl meanRxPacketSize_40_43 1510
scalar SlicingScenario.node[5].appl meanTxPacketSize_40_43 0
scalar SlicingScenario.node[5].appl meanRxThroughput_40_43 6190.9999995822
scalar SlicingScenario.node[5].appl meanTxThroughput_40_43 0
scalar SlicingScenario.node[5].appl rxTimeOfService_40_43 80.000000005399
scalar SlicingScenario.node[5].appl txTimeOfService_40_43 0
scalar SlicingScenario.node[5].nic.phy80211p busyTime 0.023680516129032
scalar SlicingScenario.node[5].nic.phy80211p ncollisions 0
scalar SlicingScenario.node[5].nic.phy80211p UnderSensitivityPackets 154
scalar SlicingScenario.node[5].nic.mac1609_4 ReceivedUnicastPackets_CCH 0
scalar SlicingScenario.node[5].nic.mac1609_4 ReceivedBroadcasts_CCH 0
scalar SlicingScenario.node[5].nic.mac1609_4 SentPackets_CCH 0
scalar SlicingScenario.node[5].nic.mac1609_4 SentAcknowledgements_CCH 0
scalar SlicingScenario.node[5].nic.mac1609_4 SNIRLostPackets_CCH 0
scalar SlicingScenario.node[5].nic.mac1609_4 RXTXLostPackets_CCH 0
scalar SlicingScenario.node[5].nic.mac1609_4 TotalLostPackets_CCH 0
scalar SlicingScenario.node[5].nic.mac1609_4 DroppedPacketsInMac_CCH 0
scalar SlicingScenario.node[5].nic.mac1609_4 TooLittleTime_CCH 0
scalar SlicingScenario.node[5].nic.mac1609_4 TimesIntoBackoff_CCH 0
scalar SlicingScenario.node[5].nic.mac1609_4 SlotsBackoff_CCH 0
scalar SlicingScenario.node[5].nic.mac1609_4 NumInternalContention_CCH 0
scalar SlicingScenario.node[5].nic.mac1609_4 RemainingPacketsInEDCA_CCH 0
scalar SlicingScenario.node[5].nic.mac1609_4 totalBusyTime_CCH 0
scalar SlicingScenario.node[5].nic.mac1609_4 ReceivedUnicastPackets_SCH 0
scalar SlicingScenario.node[5].nic.mac1609_4 ReceivedBroadcasts_SCH 1067
scalar SlicingScenario.node[5].nic.mac1609_4 SentPackets_SCH 0
scalar SlicingScenario.node[5].nic.mac1609_4 SentAcknowledgements_SCH 0
scalar SlicingScenario.node[5].nic.mac1609_4 SNIRLostPackets_SCH 0
scalar SlicingScenario.node[5].nic.mac1609_4 RXTXLostPackets_SCH 0
scalar SlicingScenario.node[5].nic.mac1609_4 TotalLostPackets_SCH 0
scalar SlicingScenario.node[5].nic.mac1609_4 DroppedPacketsInMac_SCH 0
scalar SlicingScenario.node[5].nic.mac1609_4 TooLittleTime_SCH 0
scalar SlicingScenario.node[5].nic.mac1609_4 TimesIntoBackoff_SCH 0
scalar SlicingScenario.node[5].nic.mac1609_4 SlotsBackoff_SCH 0
scalar SlicingScenario.node[5].nic.mac1609_4 NumInternalContention_SCH 0
scalar SlicingScenario.node[5].nic.mac1609_4 RemainingPacketsInEDCA_SCH 0
scalar SlicingScenario.node[5].nic.mac1609_4 totalBusyTime_SCH 2.202288
scalar SlicingScenario.node[5].veinsmobility startTime 6
scalar SlicingScenario.node[5].veinsmobility totalTime 92
scalar SlicingScenario.node[5].veinsmobility stopTime 99
scalar SlicingScenario.node[5].veinsmobility minSpeed 7.9901006769952
scalar SlicingScenario.node[5].veinsmobility maxSpeed 11.107808954446
scalar SlicingScenario.node[5].veinsmobility totalDistance 982.25034625549
scalar SlicingScenario.node[5].veinsmobility totalCO2Emission 167.45891309223
scalar SlicingScenario.node[6].appl txPackets_49 0
scalar SlicingScenario.node[6].appl rxPackets_49 0
scalar SlicingScenario.node[6].appl rxNeighborPackets_49 0
scalar SlicingScenario.node[6].appl meanDelay_49 0
scalar SlicingScenario.node[6].appl meanJitter_49 0
scalar SlicingScenario.node[6].appl meanRxPacketSize_49 0
scalar SlicingScenario.node[6].appl meanTxPacketSize_49 0
scalar SlicingScenario.node[6].appl meanRxThroughput_49 0
scalar SlicingScenario.node[6].appl meanTxThroughput_49 0
scalar SlicingScenario.node[6].appl rxTimeOfService_49 0
scalar SlicingScenario.node[6].appl txTimeOfService_49 0
scalar SlicingScenario.node[6].appl txPackets_40_49 0
scalar SlicingScenario.node[6].appl rxPackets_40_49 41
scalar SlicingScenario.node[6].appl rxNeighborPackets_40_49 678
scalar SlicingScenario.node[6].appl meanDelay_40_49 0.002330991495
scalar SlicingScenario.node[6].appl meanJitter_40_49 8.1043142e-05
scalar SlicingScenario.node[6].appl meanRxPacketSize_40_49 1510
scalar SlicingScenario.node[6].appl meanTxPacketSize_40_49 0
scalar SlicingScenario.node[6].appl meanRxThroughput_40_49 6190.9591306368
scalar SlicingScenario.node[6].appl meanTxThroughput_40_49 0
scalar SlicingScenario.node[6].appl rxTimeOfService_40_49 80.000528116724
scalar SlicingScenario.node[6].appl txTimeOfService_40_49 0
scalar SlicingScenario.node[6].nic.phy80211p busyTime 0.024969913043478
scalar SlicingScenario.node[6].nic.phy80211p ncollisions 0
scalar SlicingScenario.node[6].nic.phy80211p UnderSensitivityPackets 105
scalar SlicingScenario.node[6].nic.mac1609_4 ReceivedUnicastPackets_CCH 0
scalar SlicingScenario.node[6].nic.mac1609_4 ReceivedBroadcasts_CCH 0
scalar SlicingScenario.node[6].nic.mac1609_4 SentPackets_CCH 0
scalar SlicingScenario.node[6].nic.mac1609_4 SentAcknowledgements_CCH 0
scalar SlicingScenario.node[6].nic.mac1609_4 SNIRLostPackets_CCH 0
scalar SlicingScenario.node[6].nic.mac1609_4 RXTXLostPackets_CCH 0
scalar SlicingScenario.node[6].nic.mac1609_4 TotalLostPackets_CCH 0
scalar SlicingScenario.node[6].nic.mac1609_4 DroppedPacketsInMac_CCH 0
scalar SlicingScenario.node[6].nic.mac1609_4 TooLittleTime_CCH 0
scalar SlicingScenario.node[6].nic.mac1609_4 TimesIntoBackoff_CCH 0
scalar SlicingScenario.node[6].nic.mac1609_4 SlotsBackoff_CCH 0
scalar SlicingScenario.node[6].nic.mac1609_4 NumInternalContention_CCH 0
scalar SlicingScenario.node[6].nic.mac1609_4 RemainingPacketsInEDCA_CCH 0
scalar SlicingScenario.node[6].nic.mac1609_4 totalBusyTime_CCH 0
scalar SlicingScenario.node[6].nic.mac1609_4 ReceivedUnicastPackets_SCH 0
scalar SlicingScenario.node[6].nic.mac1609_4 ReceivedBroadcasts_SCH 1113
scalar SlicingScenario.node[6].nic.mac1609_4 SentPackets_SCH 0
scalar SlicingScenario.node[6].nic.mac1609_4 SentAcknowledgements_SCH 0
scalar SlicingScenario.node[6].nic.mac1609_4 SNIRLostPackets_SCH 0
scalar SlicingScenario.node[6].nic.mac1609_4 RXTXLostPackets_SCH 0
scalar SlicingScenario.node[6].nic.mac1609_4 TotalLostPackets_SCH 0
scalar SlicingScenario.node[6].nic.mac1609_4 DroppedPacketsInMac_SCH 0
scalar SlicingScenario.node[6].nic.mac1609_4 TooLittleTime_SCH 0
scalar SlicingScenario.node[6].nic.mac1609_4 TimesIntoBackoff_SCH 0
scalar SlicingScenario.node[6].nic.mac1609_4 SlotsBackoff_SCH 0
scalar SlicingScenario.node[6].nic.mac1609_4 NumInternalContention_SCH 0
scalar SlicingScenario.node[6].nic.mac1609_4 RemainingPacketsInEDCA_SCH 0
scalar SlicingScenario.node[6].nic.mac1609_4 totalBusyTime_SCH 2.297232
scalar SlicingScenario.node[6].veinsmobility startTime 7
scalar SlicingScenario.node[6].veinsmobility totalTime 91
scalar SlicingScenario.node[6].veinsmobility stopTime 99
scalar SlicingScenario.node[6].veinsmobility minSpeed 10.612501339302
scalar SlicingScenario.node[6].veinsmobility maxSpeed 11.101370197851
scalar SlicingScenario.node[6].veinsmobility totalDistance 976.78621906657
scalar SlicingScenario.node[6].veinsmobility totalCO2Emission 157.94874242886
scalar SlicingScenario.node[8].appl txPackets_61 0
scalar SlicingScenario.node[8].appl rxPackets_61 0
scalar SlicingScenario.node[8].appl rxNeighborPackets_61 0
scalar SlicingScenario.node[8].appl meanDelay_61 0
scalar SlicingScenario.node[8].appl meanJitter_61 0
scalar SlicingScenario.node[8].appl meanRxPacketSize_61 0
scalar SlicingScenario.node[8].appl meanTxPacketSize_61 0
scalar SlicingScenario.node[8].appl meanRxThroughput_61 0
scalar SlicingScenario.node[8].appl meanTxThroughput_61 0
scalar SlicingScenario.node[8].appl rxTimeOfService_61 0
scalar SlicingScenario.node[8].appl txTimeOfService_61 0
scalar SlicingScenario.node[8].appl txPackets_40_61 0
scalar SlicingScenario.node[8].appl rxPackets_40_61 39
scalar SlicingScenario.node[8].appl rxNeighborPackets_40_61 677
scalar SlicingScenario.node[8].appl meanDelay_40_61 0.006052906682
scalar SlicingScenario.node[8].appl meanJitter_40_61 0.000235596831
scalar SlicingScenario.node[8].appl meanRxPacketSize_40_61 1510
scalar SlicingScenario.node[8].appl meanTxPacketSize_40_61 0
scalar SlicingScenario.node[8].appl meanRxThroughput_40_61 6198.7795023906
scalar SlicingScenario.node[8].appl meanTxThroughput_40_61 0
scalar SlicingScenario.node[8].appl rxTimeOfService_40_61 76.002058117781
scalar SlicingScenario.node[8].appl txTimeOfService_40_61 0
scalar SlicingScenario.node[8].nic.phy80211p busyTime 0.024857739130435
scalar SlicingScenario.node[8].nic.phy80211p ncollisions 0
scalar SlicingScenario.node[8].nic.phy80211p UnderSensitivityPackets 156
scalar SlicingScenario.node[8].nic.mac1609_4 ReceivedUnicastPackets_CCH 0
scalar SlicingScenario.node[8].nic.mac1609_4 ReceivedBroadcasts_CCH 0
scalar SlicingScenario.node[8].nic.mac1609_4 SentPackets_CCH 0
scalar SlicingScenario.node[8].nic.mac1609_4 SentAcknowledgements_CCH 0
scalar SlicingScenario.node[8].nic.mac1609_4 SNIRLostPackets_CCH 0
scalar SlicingScenario.node[8].nic.mac1609_4 RXTXLostPackets_CCH 0
scalar SlicingScenario.node[8].nic.mac1609_4 TotalLostPackets_CCH 0
scalar SlicingScenario.node[8].nic.mac1609_4 DroppedPacketsInMac_CCH 0
scalar SlicingScenario.node[8].nic.mac1609_4 TooLittleTime_CCH 0
scalar SlicingScenario.node[8].nic.mac1609_4 TimesIntoBackoff_CCH 0
scalar SlicingScenario.node[8].nic.mac1609_4 SlotsBackoff_CCH 0
scalar SlicingScenario.node[8].nic.mac1609_4 NumInternalContention_CCH 0
scalar SlicingScenario.node[8].nic.mac1609_4 RemainingPacketsInEDCA_CCH 0
scalar SlicingScenario.node[8].nic.mac1609_4 totalBusyTime_CCH 0
scalar SlicingScenario.node[8].nic.mac1609_4 ReceivedUnicastPackets_SCH 0
scalar SlicingScenario.node[8].nic.mac1609_4 ReceivedBroadcasts_SCH 1108
scalar SlicingScenario.node[8].nic.mac1609_4 SentPackets_SCH 0
scalar SlicingScenario.node[8].nic.mac1609_4 SentAcknowledgements_SCH 0
scalar SlicingScenario.node[8].nic.mac1609_4 SNIRLostPackets_SCH 0
scalar SlicingScenario.node[8].nic.mac1609_4 RXTXLostPackets_SCH 0
scalar SlicingScenario.node[8].nic.mac1609_4 TotalLostPackets_SCH 0
scalar SlicingScenario.node[8].nic.mac1609_4 DroppedPacketsInMac_SCH 0
scalar SlicingScenario.node[8].nic.mac1609_4 TooLittleTime_SCH 0
scalar SlicingScenario.node[8].nic.mac1609_4 TimesIntoBackoff_SCH 0
scalar SlicingScenario.node[8].nic.mac1609_4 SlotsBackoff_SCH 0
scalar SlicingScenario.node[8].nic.mac1609_4 NumInternalContention_SCH 0
scalar SlicingScenario.node[8].nic.mac1609_4 RemainingPacketsInEDCA_SCH 0
scalar SlicingScenario.node[8].nic.mac1609_4 totalBusyTime_SCH 2.286912
scalar SlicingScenario.node[8].veinsmobility startTime 9
scalar SlicingScenario.node[8].veinsmobility totalTime 91
scalar SlicingScenario.node[8].veinsmobility stopTime 101
scalar SlicingScenario.node[8].veinsmobility minSpeed 10.612392269205
scalar SlicingScenario.node[8].veinsmobility maxSpeed 11.100191093297
scalar SlicingScenario.node[8].veinsmobility totalDistance 976.92909623755
scalar SlicingScenario.node[8].veinsmobility totalCO2Emission 158.44248658842
scalar SlicingScenario.node[7].appl txPackets_55 0
scalar SlicingScenario.node[7].appl rxPackets_55 0
scalar SlicingScenario.node[7].appl rxNeighborPackets_55 0
scalar SlicingScenario.node[7].appl meanDelay_55 0
scalar SlicingScenario.node[7].appl meanJitter_55 0
scalar SlicingScenario.node[7].appl meanRxPacketSize_55 0
scalar SlicingScenario.node[7].appl meanTxPacketSize_55 0
scalar SlicingScenario.node[7].appl meanRxThroughput_55 0
scalar SlicingScenario.node[7].appl meanTxThroughput_55 0
scalar SlicingScenario.node[7].appl rxTimeOfService_55 0
scalar SlicingScenario.node[7].appl txTimeOfService_55 0
scalar SlicingScenario.node[7].appl txPackets_40_55 0
scalar SlicingScenario.node[7].appl rxPackets_40_55 40
scalar SlicingScenario.node[7].appl rxNeighborPackets_40_55 676
scalar SlicingScenario.node[7].appl meanDelay_40_55 0.003640162925
scalar SlicingScenario.node[7].appl meanJitter_40_55 0.000121787577
scalar SlicingScenario.node[7].appl meanRxPacketSize_40_55 1510
scalar SlicingScenario.node[7].appl meanTxPacketSize_40_55 0
scalar SlicingScenario.node[7].appl meanRxThroughput_40_55 6194.7400328788
scalar SlicingScenario.node[7].appl meanTxThroughput_40_55 0
scalar SlicingScenario.node[7].appl rxTimeOfService_40_55 78.001659058395
scalar SlicingScenario.node[7].appl txTimeOfService_40_55 0
scalar SlicingScenario.node[7].nic.phy80211p busyTime 0.024590451612903
scalar SlicingScenario.node[7].nic.phy80211p ncollisions 0
scalar SlicingScenario.node[7].nic.phy80211p UnderSensitivityPackets 160
scalar SlicingScenario.node[7].nic.mac1609_4 ReceivedUnicastPackets_CCH 0
scalar SlicingScenario.node[7].nic.mac1609_4 ReceivedBroadcasts_CCH 0
scalar SlicingScenario.node[7].nic.mac1609_4 SentPackets_CCH 0
scalar SlicingScenario.node[7].nic.mac1609_4 SentAcknowledgements_CCH 0
scalar SlicingScenario.node[7].nic.mac1609_4 SNIRLostPackets_CCH 0
scalar SlicingScenario.node[7].nic.mac1609_4 RXTXLostPackets_CCH 0
scalar SlicingScenario.node[7].nic.mac1609_4 TotalLostPackets_CCH 0
scalar SlicingScenario.node[7].nic.mac1609_4 DroppedPacketsInMac_CCH 0
scalar SlicingScenario.node[7].nic.mac1609_4 TooLittleTime_CCH 0
scalar SlicingScenario.node[7].nic.mac1609_4 TimesIntoBackoff_CCH 0
scalar SlicingScenario.node[7].nic.mac1609_4 SlotsBackoff_CCH 0
scalar SlicingScenario.node[7].nic.mac1609_4 NumInternalContention_CCH 0
scalar SlicingScenario.node[7].nic.mac1609_4 RemainingPacketsInEDCA_CCH 0
scalar SlicingScenario.node[7].nic.mac1609_4 totalBusyTime_CCH 0
scalar SlicingScenario.node[7].nic.mac1609_4 ReceivedUnicastPackets_SCH 0
scalar SlicingScenario.node[7].nic.mac1609_4 ReceivedBroadcasts_SCH 1108
scalar SlicingScenario.node[7].nic.mac1609_4 SentPackets_SCH 0
scalar SlicingScenario.node[7].nic.mac1609_4 SentAcknowledgements_SCH 0
scalar SlicingScenario.node[7].nic.mac1609_4 SNIRLostPackets_SCH 0
scalar SlicingScenario.node[7].nic.mac1609_4 RXTXLostPackets_SCH 0
scalar SlicingScenario.node[7].nic.mac1609_4 TotalLostPackets_SCH 0
scalar SlicingScenario.node[7].nic.mac1609_4 DroppedPacketsInMac_SCH 0
scalar SlicingScenario.node[7].nic.mac1609_4 TooLittleTime_SCH 0
scalar SlicingScenario.node[7].nic.mac1609_4 TimesIntoBackoff_SCH 0
scalar SlicingScenario.node[7].nic.mac1609_4 SlotsBackoff_SCH 0
scalar SlicingScenario.node[7].nic.mac1609_4 NumInternalContention_SCH 0
scalar SlicingScenario.node[7].nic.mac1609_4 RemainingPacketsInEDCA_SCH 0
scalar SlicingScenario.node[7].nic.mac1609_4 totalBusyTime_SCH 2.286912
scalar SlicingScenario.node[7].veinsmobility startTime 8
scalar SlicingScenario.node[7].veinsmobility totalTime 92
scalar SlicingScenario.node[7].veinsmobility stopTime 101
scalar SlicingScenario.node[7].veinsmobility minSpeed 7.6838346285378
scalar SlicingScenario.node[7].veinsmobility maxSpeed 11.100642752731
scalar SlicingScenario.node[7].veinsmobility totalDistance 979.2393398972
scalar SlicingScenario.node[7].veinsmobility totalCO2Emission 166.7379456751
scalar SlicingScenario.node[9].appl txPackets_67 0
scalar SlicingScenario.node[9].appl rxPackets_67 0
scalar SlicingScenario.node[9].appl rxNeighborPackets_67 0
scalar SlicingScenario.node[9].appl meanDelay_67 0
scalar SlicingScenario.node[9].appl meanJitter_67 0
scalar SlicingScenario.node[9].appl meanRxPacketSize_67 0
scalar SlicingScenario.node[9].appl meanTxPacketSize_67 0
scalar SlicingScenario.node[9].appl meanRxThroughput_67 0
scalar SlicingScenario.node[9].appl meanTxThroughput_67 0
scalar SlicingScenario.node[9].appl rxTimeOfService_67 0
scalar SlicingScenario.node[9].appl txTimeOfService_67 0
scalar SlicingScenario.node[9].appl txPackets_41_67 0
scalar SlicingScenario.node[9].appl rxPackets_41_67 39
scalar SlicingScenario.node[9].appl rxNeighborPackets_41_67 371
scalar SlicingScenario.node[9].appl meanDelay_41_67 0.002067496268
scalar SlicingScenario.node[9].appl meanJitter_41_67 5.4554837e-05
scalar SlicingScenario.node[9].appl meanRxPacketSize_41_67 1510
scalar SlicingScenario.node[9].appl meanTxPacketSize_41_67 0
scalar SlicingScenario.node[9].appl meanRxThroughput_41_67 6198.9470263227
scalar SlicingScenario.node[9].appl meanTxThroughput_41_67 0
scalar SlicingScenario.node[9].appl rxTimeOfService_41_67 76.000004194176
scalar SlicingScenario.node[9].appl txTimeOfService_41_67 0
scalar SlicingScenario.node[9].nic.phy80211p busyTime 0.025889739130435
scalar SlicingScenario.node[9].nic.phy80211p ncollisions 0
scalar SlicingScenario.node[9].nic.phy80211p UnderSensitivityPackets 111
scalar SlicingScenario.node[9].nic.mac1609_4 ReceivedUnicastPackets_CCH 0
scalar SlicingScenario.node[9].nic.mac1609_4 ReceivedBroadcasts_CCH 0
scalar SlicingScenario.node[9].nic.mac1609_4 SentPackets_CCH 0
scalar SlicingScenario.node[9].nic.mac1609_4 SentAcknowledgements_CCH 0
scalar SlicingScenario.node[9].nic.mac1609_4 SNIRLostPackets_CCH 0
scalar SlicingScenario.node[9].nic.mac1609_4 RXTXLostPackets_CCH 0
scalar SlicingScenario.node[9].nic.mac1609_4 TotalLostPackets_CCH 0
scalar SlicingScenario.node[9].nic.mac1609_4 DroppedPacketsInMac_CCH 0
scalar SlicingScenario.node[9].nic.mac1609_4 TooLittleTime_CCH 0
scalar SlicingScenario.node[9].nic.mac1609_4 TimesIntoBackoff_CCH 0
scalar SlicingScenario.node[9].nic.mac1609_4 SlotsBackoff_CCH 0
scalar SlicingScenario.node[9].nic.mac1609_4 NumInternalContention_CCH 0
scalar SlicingScenario.node[9].nic.mac1609_4 RemainingPacketsInEDCA_CCH 0
scalar SlicingScenario.node[9].nic.mac1609_4 totalBusyTime_CCH 0
scalar SlicingScenario.node[9].nic.mac1609_4 ReceivedUnicastPackets_SCH 0
scalar SlicingScenario.node[9].nic.mac1609_4 ReceivedBroadcasts_SCH 1154
scalar SlicingScenario.node[9].nic.mac1609_4 SentPackets_SCH 0
scalar SlicingScenario.node[9].nic.mac1609_4 SentAcknowledgements_SCH 0
scalar SlicingScenario.node[9].nic.mac1609_4 SNIRLostPackets_SCH 0
scalar SlicingScenario.node[9].nic.mac1609_4 RXTXLostPackets_SCH 0
scalar SlicingScenario.node[9].nic.mac1609_4 TotalLostPackets_SCH 0
scalar SlicingScenario.node[9].nic.mac1609_4 DroppedPacketsInMac_SCH 0
scalar SlicingScenario.node[9].nic.mac1609_4 TooLittleTime_SCH 0
scalar SlicingScenario.node[9].nic.mac1609_4 TimesIntoBackoff_SCH 0
scalar SlicingScenario.node[9].nic.mac1609_4 SlotsBackoff_SCH 0
scalar SlicingScenario.node[9].nic.mac1609_4 NumInternalContention_SCH 0
scalar SlicingScenario.node[9].nic.mac1609_4 RemainingPacketsInEDCA_SCH 0
scalar SlicingScenario.node[9].nic.mac1609_4 totalBusyTime_SCH 2.381856
scalar SlicingScenario.node[9].veinsmobility startTime 10
scalar SlicingScenario.node[9].veinsmobility totalTime 91
scalar SlicingScenario.node[9].veinsmobility stopTime 102
scalar SlicingScenario.node[9].veinsmobility minSpeed 10.612963280887
scalar SlicingScenario.node[9].veinsmobility maxSpeed 11.108825240298
scalar SlicingScenario.node[9].veinsmobility totalDistance 978.21310358034
scalar SlicingScenario.node[9].veinsmobility totalCO2Emission 158.95893962543
scalar SlicingScenario.node[10].appl txPackets_73 0
scalar SlicingScenario.node[10].appl rxPackets_73 0
scalar SlicingScenario.node[10].appl rxNeighborPackets_73 0
scalar SlicingScenario.node[10].appl meanDelay_73 0
scalar SlicingScenario.node[10].appl meanJitter_73 0
scalar SlicingScenario.node[10].appl meanRxPacketSize_73 0
scalar SlicingScenario.node[10].appl meanTxPacketSize_73 0
scalar SlicingScenario.node[10].appl meanRxThroughput_73 0
scalar SlicingScenario.node[10].appl meanTxThroughput_73 0
scalar SlicingScenario.node[10].appl rxTimeOfService_73 0
scalar SlicingScenario.node[10].appl txTimeOfService_73 0
scalar SlicingScenario.node[10].appl txPackets_41_73 0
scalar SlicingScenario.node[10].appl rxPackets_41_73 39
scalar SlicingScenario.node[10].appl rxNeighborPackets_41_73 387
scalar SlicingScenario.node[10].appl meanDelay_41_73 0.008034951062
scalar SlicingScenario.node[10].appl meanJitter_41_73 0.00030380725
scalar SlicingScenario.node[10].appl meanRxPacketSize_41_73 1510
scalar SlicingScenario.node[10].appl meanTxPacketSize_41_73 0
scalar SlicingScenario.node[10].appl meanRxThroughput_41_73 6198.595743564
scalar SlicingScenario.node[10].appl meanTxThroughput_41_73 0
scalar SlicingScenario.node[10].appl rxTimeOfService_41_73 76.004311216644
scalar SlicingScenario.node[10].appl txTimeOfService_41_73 0
scalar SlicingScenario.node[10].nic.phy80211p busyTime 0.026543483870968
scalar SlicingScenario.node[10].nic.phy80211p ncollisions 0
scalar SlicingScenario.node[10].nic.phy80211p UnderSensitivityPackets 116
scalar SlicingScenario.node[10].nic.mac1609_4 ReceivedUnicastPackets_CCH 0
scalar SlicingScenario.node[10].nic.mac1609_4 ReceivedBroadcasts_CCH 0
scalar SlicingScenario.node[10].nic.mac1609_4 SentPackets_CCH 0
scalar SlicingScenario.node[10].nic.mac1609_4 SentAcknowledgements_CCH 0
scalar SlicingScenario.node[10].nic.mac1609_4 SNIRLostPackets_CCH 0
scalar SlicingScenario.node[10].nic.mac1609_4 RXTXLostPackets_CCH 0
scalar SlicingScenario.node[10].nic.mac1609_4 TotalLostPackets_CCH 0
scalar SlicingScenario.node[10].nic.mac1609_4 DroppedPacketsInMac_CCH 0
scalar SlicingScenario.node[10].nic.mac1609_4 TooLittleTime_CCH 0
scalar SlicingScenario.node[10].nic.mac1609_4 TimesIntoBackoff_CCH 0
scalar SlicingScenario.node[10].nic.mac1609_4 SlotsBackoff_CCH 0
scalar SlicingScenario.node[10].nic.mac1609_4 NumInternalContention_CCH 0
scalar SlicingScenario.node[10].nic.mac1609_4 RemainingPacketsInEDCA_CCH 0
scalar SlicingScenario.node[10].nic.mac1609_4 totalBusyTime_CCH 0
scalar SlicingScenario.node[10].nic.mac1609_4 ReceivedUnicastPackets_SCH 0
scalar SlicingScenario.node[10].nic.mac1609_4 ReceivedBroadcasts_SCH 1196
scalar SlicingScenario.node[10].nic.mac1609_4 SentPackets_SCH 0
scalar SlicingScenario.node[10].nic.mac1609_4 SentAcknowledgements_SCH 0
scalar SlicingScenario.node[10].nic.mac1609_4 SNIRLostPackets_SCH 0
scalar SlicingScenario.node[10].nic.mac1609_4 RXTXLostPackets_SCH 0
scalar SlicingScenario.node[10].nic.mac1609_4 TotalLostPackets_SCH 0
scalar SlicingScenario.node[10].nic.mac1609_4 DroppedPacketsInMac_SCH 0
scalar SlicingScenario.node[10].nic.mac1609_4 TooLittleTime_SCH 0
scalar SlicingScenario.node[10].nic.mac1609_4 TimesIntoBackoff_SCH 0
scalar SlicingScenario.node[10].nic.mac1609_4 SlotsBackoff_SCH 0
scalar SlicingScenario.node[10].nic.mac1609_4 NumInternalContention_SCH 0
scalar SlicingScenario.node[10].nic.mac1609_4 RemainingPacketsInEDCA_SCH 0
scalar SlicingScenario.node[10].nic.mac1609_4 totalBusyTime_SCH 2.468544
scalar SlicingScenario.node[10].veinsmobility startTime 11
scalar SlicingScenario.node[10].veinsmobility totalTime 92
scalar SlicingScenario.node[10].veinsmobility stopTime 104
scalar SlicingScenario.node[10].veinsmobility minSpeed 7.9723179430449
scalar SlicingScenario.node[10].veinsmobility maxSpeed 11.102541340063
scalar SlicingScenario.node[10].veinsmobility totalDistance 981.19037808495
scalar SlicingScenario.node[10].veinsmobility totalCO2Emission 167.28951998167
scalar SlicingScenario.node[11].appl txPackets_79 0
scalar SlicingScenario.node[11].appl rxPackets_79 0
scalar SlicingScenario.node[11].appl rxNeighborPackets_79 0
scalar SlicingScenario.node[11].appl meanDelay_79 0
scalar SlicingScenario.node[11].appl meanJitter_79 0
scalar SlicingScenario.node[11].appl meanRxPacketSize_79 0
scalar SlicingScenario.node[11].appl meanTxPacketSize_79 0
scalar SlicingScenario.node[11].appl meanRxThroughput_79 0
scalar SlicingScenario.node[11].appl meanTxThroughput_79 0
scalar SlicingScenario.node[11].appl rxTimeOfService_79 0
scalar SlicingScenario.node[11].appl txTimeOfService_79 0
scalar SlicingScenario.node[11].appl txPackets_40_79 0
scalar SlicingScenario.node[11].appl rxPackets_40_79 38
scalar SlicingScenario.node[11].appl rxNeighborPackets_40_79 732
scalar SlicingScenario.node[11].appl meanDelay_40_79 0.002070987327
scalar SlicingScenario.node[11].appl meanJitter_40_79 5.6905984e-05
scalar SlicingScenario.node[11].appl meanRxPacketSize_40_79 1510
scalar SlicingScenario.node[11].appl meanTxPacketSize_40_79 0
scalar SlicingScenario.node[11].appl meanRxThroughput_40_79 6203.2437235146
scalar SlicingScenario.node[11].appl meanTxThroughput_40_79 0
scalar SlicingScenario.node[11].appl rxTimeOfService_40_79 73.999994270726
scalar SlicingScenario.node[11].appl txTimeOfService_40_79 0
scalar SlicingScenario.node[11].nic.phy80211p busyTime 0.026832
scalar SlicingScenario.node[11].nic.phy80211p ncollisions 0
scalar SlicingScenario.node[11].nic.phy80211p UnderSensitivityPackets 115
scalar SlicingScenario.node[11].nic.mac1609_4 ReceivedUnicastPackets_CCH 0
scalar SlicingScenario.node[11].nic.mac1609_4 ReceivedBroadcasts_CCH 0
scalar SlicingScenario.node[11].nic.mac1609_4 SentPackets_CCH 0
scalar SlicingScenario.node[11].nic.mac1609_4 SentAcknowledgements_CCH 0
scalar SlicingScenario.node[11].nic.mac1609_4 SNIRLostPackets_CCH 0
scalar SlicingScenario.node[11].nic.mac1609_4 RXTXLostPackets_CCH 0
scalar SlicingScenario.node[11].nic.mac1609_4 TotalLostPackets_CCH 0
scalar SlicingScenario.node[11].nic.mac1609_4 DroppedPacketsInMac_CCH 0
scalar SlicingScenario.node[11].nic.mac1609_4 TooLittleTime_CCH 0
scalar SlicingScenario.node[11].nic.mac1609_4 TimesIntoBackoff_CCH 0
scalar SlicingScenario.node[11].nic.mac1609_4 SlotsBackoff_CCH 0
scalar SlicingScenario.node[11].nic.mac1609_4 NumInternalContention_CCH 0
scalar SlicingScenario.node[11].nic.mac1609_4 RemainingPacketsInEDCA_CCH 0
scalar SlicingScenario.node[11].nic.mac1609_4 totalBusyTime_CCH 0
scalar SlicingScenario.node[11].nic.mac1609_4 ReceivedUnicastPackets_SCH 0
scalar SlicingScenario.node[11].nic.mac1609_4 ReceivedBroadcasts_SCH 1196
scalar SlicingScenario.node[11].nic.mac1609_4 SentPackets_SCH 0
scalar SlicingScenario.node[11].nic.mac1609_4 SentAcknowledgements_SCH 0
scalar SlicingScenario.node[11].nic.mac1609_4 SNIRLostPackets_SCH 0
scalar SlicingScenario.node[11].nic.mac1609_4 RXTXLostPackets_SCH 0
scalar SlicingScenario.node[11].nic.mac1609_4 TotalLostPackets_SCH 0
scalar SlicingScenario.node[11].nic.mac1609_4 DroppedPacketsInMac_SCH 0
scalar SlicingScenario.node[11].nic.mac1609_4 TooLittleTime_SCH 0
scalar SlicingScenario.node[11].nic.mac1609_4 TimesIntoBackoff_SCH 0
scalar SlicingScenario.node[11].nic.mac1609_4 SlotsBackoff_SCH 0
scalar SlicingScenario.node[11].nic.mac1609_4 NumInternalContention_SCH 0
scalar SlicingScenario.node[11].nic.mac1609_4 RemainingPacketsInEDCA_SCH 0
scalar SlicingScenario.node[11].nic.mac1609_4 totalBusyTime_SCH 2.468544
scalar SlicingScenario.node[11].veinsmobility startTime 12
scalar SlicingScenario.node[11].veinsmobility totalTime 91
scalar SlicingScenario.node[11].veinsmobility stopTime 104
scalar SlicingScenario.node[11].veinsmobility minSpeed 10.629271163503
scalar SlicingScenario.node[11].veinsmobility maxSpeed 11.103990493705
scalar SlicingScenario.node[11].veinsmobility totalDistance 978.88871783959
scalar SlicingScenario.node[11].veinsmobility totalCO2Emission 158.56463962574
scalar SlicingScenario.node[12].appl txPackets_85 0
scalar SlicingScenario.node[12].appl rxPackets_85 0
scalar SlicingScenario.node[12].appl rxNeighborPackets_85 0
scalar SlicingScenario.node[12].appl meanDelay_85 0
scalar SlicingScenario.node[12].appl meanJitter_85 0
scalar SlicingScenario.node[12].appl meanRxPacketSize_85 0
scalar SlicingScenario.node[12].appl meanTxPacketSize_85 0
scalar SlicingScenario.node[12].appl meanRxThroughput_85 0
scalar SlicingScenario.node[12].appl meanTxThroughput_85 0
scalar SlicingScenario.node[12].appl rxTimeOfService_85 0
scalar SlicingScenario.node[12].appl txTimeOfService_85 0
scalar SlicingScenario.node[12].appl txPackets_41_85 0
scalar SlicingScenario.node[12].appl rxPackets_41_85 37
scalar SlicingScenario.node[12].appl rxNeighborPackets_41_85 387
scalar SlicingScenario.node[12].appl meanDelay_41_85 0.002071056312
scalar SlicingScenario.node[12].appl meanJitter_41_85 5.7672461e-05
scalar SlicingScenario.node[12].appl meanRxPacketSize_41_85 1510
scalar SlicingScenario.node[12].appl meanTxPacketSize_41_85 0
scalar SlicingScenario.node[12].appl meanRxThroughput_41_85 6207.7774099534
scalar SlicingScenario.node[12].appl meanTxThroughput_41_85 0
scalar SlicingScenario.node[12].appl rxTimeOfService_41_85 72.000004266157
scalar SlicingScenario.node[12].appl txTimeOfService_41_85 0
scalar SlicingScenario.node[12].nic.phy80211p busyTime 0.026697391304348
scalar SlicingScenario.node[12].nic.phy80211p ncollisions 0
scalar SlicingScenario.node[12].nic.phy80211p UnderSensitivityPackets 167
scalar SlicingScenario.node[12].nic.mac1609_4 ReceivedUnicastPackets_CCH 0
scalar SlicingScenario.node[12].nic.mac1609_4 ReceivedBroadcasts_CCH 0
scalar SlicingScenario.node[12].nic.mac1609_4 SentPackets_CCH 0
scalar SlicingScenario.node[12].nic.mac1609_4 SentAcknowledgements_CCH 0
scalar SlicingScenario.node[12].nic.mac1609_4 SNIRLostPackets_CCH 0
scalar SlicingScenario.node[12].nic.mac1609_4 RXTXLostPackets_CCH 0
scalar SlicingScenario.node[12].nic.mac1609_4 TotalLostPackets_CCH 0
scalar SlicingScenario.node[12].nic.mac1609_4 DroppedPacketsInMac_CCH 0
scalar SlicingScenario.node[12].nic.mac1609_4 TooLittleTime_CCH 0
scalar SlicingScenario.node[12].nic.mac1609_4 TimesIntoBackoff_CCH 0
scalar SlicingScenario.node[12].nic.mac1609_4 SlotsBackoff_CCH 0
scalar SlicingScenario.node[12].nic.mac1609_4 NumInternalContention_CCH 0
scalar SlicingScenario.node[12].nic.mac1609_4 RemainingPacketsInEDCA_CCH 0
scalar SlicingScenario.node[12].nic.mac1609_4 totalBusyTime_CCH 0
scalar SlicingScenario.node[12].nic.mac1609_4 ReceivedUnicastPackets_SCH 0
scalar SlicingScenario.node[12].nic.mac1609_4 ReceivedBroadcasts_SCH 1190
scalar SlicingScenario.node[12].nic.mac1609_4 SentPackets_SCH 0
scalar SlicingScenario.node[12].nic.mac1609_4 SentAcknowledgements_SCH 0
scalar SlicingScenario.node[12].nic.mac1609_4 SNIRLostPackets_SCH 0
scalar SlicingScenario.node[12].nic.mac1609_4 RXTXLostPackets_SCH 0
scalar SlicingScenario.node[12].nic.mac1609_4 TotalLostPackets_SCH 0
scalar SlicingScenario.node[12].nic.mac1609_4 DroppedPacketsInMac_SCH 0
scalar SlicingScenario.node[12].nic.mac1609_4 TooLittleTime_SCH 0
scalar SlicingScenario.node[12].nic.mac1609_4 TimesIntoBackoff_SCH 0
scalar SlicingScenario.node[12].nic.mac1609_4 SlotsBackoff_SCH 0
scalar SlicingScenario.node[12].nic.mac1609_4 NumInternalContention_SCH 0
scalar SlicingScenario.node[12].nic.mac1609_4 RemainingPacketsInEDCA_SCH 0
scalar SlicingScenario.node[12].nic.mac1609_4 totalBusyTime_SCH 2.45616
scalar SlicingScenario.node[12].veinsmobility startTime 13
scalar SlicingScenario.node[12].veinsmobility totalTime 91
scalar SlicingScenario.node[12].veinsmobility stopTime 105
scalar SlicingScenario.node[12].veinsmobility minSpeed 10.612733094501
scalar SlicingScenario.node[12].veinsmobility maxSpeed 11.096081636278
scalar SlicingScenario.node[12].veinsmobility totalDistance 978.61853875727
scalar SlicingScenario.node[12].veinsmobility totalCO2Emission 157.21402293094
scalar SlicingScenario.node[13].appl txPackets_91 0
scalar SlicingScenario.node[13].appl rxPackets_91 0
scalar SlicingScenario.node[13].appl rxNeighborPackets_91 0
scalar SlicingScenario.node[13].appl meanDelay_91 0
scalar SlicingScenario.node[13].appl meanJitter_91 0
scalar SlicingScenario.node[13].appl meanRxPacketSize_91 0
scalar SlicingScenario.node[13].appl meanTxPacketSize_91 0
scalar SlicingScenario.node[13].appl meanRxThroughput_91 0
scalar SlicingScenario.node[13].appl meanTxThroughput_91 0
scalar SlicingScenario.node[13].appl rxTimeOfService_91 0
scalar SlicingScenario.node[13].appl txTimeOfService_91 0
scalar SlicingScenario.node[13].appl txPackets_40_91 0
scalar SlicingScenario.node[13].appl rxPackets_40_91 37
scalar SlicingScenario.node[13].appl rxNeighborPackets_40_91 758
scalar SlicingScenario.node[13].appl meanDelay_40_91 0.058968495113
scalar SlicingScenario.node[13].appl meanJitter_40_91 0.001705618321
scalar SlicingScenario.node[13].appl meanRxPacketSize_40_91 1510
scalar SlicingScenario.node[13].appl meanTxPacketSize_40_91 0
scalar SlicingScenario.node[13].appl meanRxThroughput_40_91 6207.5835023099
scalar SlicingScenario.node[13].appl meanTxThroughput_40_91 0
scalar SlicingScenario.node[13].appl rxTimeOfService_40_91 72.002253346037
scalar SlicingScenario.node[13].appl txTimeOfService_40_91 0
scalar SlicingScenario.node[13].nic.phy80211p busyTime 0.027774260869565
scalar SlicingScenario.node[13].nic.phy80211p ncollisions 0
scalar SlicingScenario.node[13].nic.phy80211p UnderSensitivityPackets 119
scalar SlicingScenario.node[13].nic.mac1609_4 ReceivedUnicastPackets_CCH 0
scalar SlicingScenario.node[13].nic.mac1609_4 ReceivedBroadcasts_CCH 0
scalar SlicingScenario.node[13].nic.mac1609_4 SentPackets_CCH 0
scalar SlicingScenario.node[13].nic.mac1609_4 SentAcknowledgements_CCH 0
scalar SlicingScenario.node[13].nic.mac1609_4 SNIRLostPackets_CCH 0
scalar SlicingScenario.node[13].nic.mac1609_4 RXTXLostPackets_CCH 0
scalar SlicingScenario.node[13].nic.mac1609_4 TotalLostPackets_CCH 0
scalar SlicingScenario.node[13].nic.mac1609_4 DroppedPacketsInMac_CCH 0
scalar SlicingScenario.node[13].nic.mac1609_4 TooLittleTime_CCH 0
scalar SlicingScenario.node[13].nic.mac1609_4 TimesIntoBackoff_CCH 0
scalar SlicingScenario.node[13].nic.mac1609_4 SlotsBackoff_CCH 0
scalar SlicingScenario.node[13].nic.mac1609_4 NumInternalContention_CCH 0
scalar SlicingScenario.node[13].nic.mac1609_4 RemainingPacketsInEDCA_CCH 0
scalar SlicingScenario.node[13].nic.mac1609_4 totalBusyTime_CCH 0
scalar SlicingScenario.node[13].nic.mac1609_4 ReceivedUnicastPackets_SCH 0
scalar SlicingScenario.node[13].nic.mac1609_4 ReceivedBroadcasts_SCH 1238
scalar SlicingScenario.node[13].nic.mac1609_4 SentPackets_SCH 0
scalar SlicingScenario.node[13].nic.mac1609_4 SentAcknowledgements_SCH 0
scalar SlicingScenario.node[13].nic.mac1609_4 SNIRLostPackets_SCH 0
scalar SlicingScenario.node[13].nic.mac1609_4 RXTXLostPackets_SCH 0
scalar SlicingScenario.node[13].nic.mac1609_4 TotalLostPackets_SCH 0
scalar SlicingScenario.node[13].nic.mac1609_4 DroppedPacketsInMac_SCH 0
scalar SlicingScenario.node[13].nic.mac1609_4 TooLittleTime_SCH 0
scalar SlicingScenario.node[13].nic.mac1609_4 TimesIntoBackoff_SCH 0
scalar SlicingScenario.node[13].nic.mac1609_4 SlotsBackoff_SCH 0
scalar SlicingScenario.node[13].nic.mac1609_4 NumInternalContention_SCH 0
scalar SlicingScenario.node[13].nic.mac1609_4 RemainingPacketsInEDCA_SCH 0
scalar SlicingScenario.node[13].nic.mac1609_4 totalBusyTime_SCH 2.555232
scalar SlicingScenario.node[13].veinsmobility startTime 14
scalar SlicingScenario.node[13].veinsmobility totalTime 91
scalar SlicingScenario.node[13].veinsmobility stopTime 106
scalar SlicingScenario.node[13].veinsmobility minSpeed 10.610495048007
scalar SlicingScenario.node[13].veinsmobility maxSpeed 11.108976686387
scalar SlicingScenario.node[13].veinsmobility totalDistance 980.04950315835
scalar SlicingScenario.node[13].veinsmobility totalCO2Emission 159.1648361322
scalar SlicingScenario.node[14].appl txPackets_97 0
scalar SlicingScenario.node[14].appl rxPackets_97 0
scalar SlicingScenario.node[14].appl rxNeighborPackets_97 0
scalar SlicingScenario.node[14].appl meanDelay_97 0
scalar SlicingScenario.node[14].appl meanJitter_97 0
scalar SlicingScenario.node[14].appl meanRxPacketSize_97 0
scalar SlicingScenario.node[14].appl meanTxPacketSize_97 0
scalar SlicingScenario.node[14].appl meanRxThroughput_97 0
scalar SlicingScenario.node[14].appl meanTxThroughput_97 0
scalar SlicingScenario.node[14].appl rxTimeOfService_97 0
scalar SlicingScenario.node[14].appl txTimeOfService_97 0
scalar SlicingScenario.node[14].appl txPackets_41_97 0
scalar SlicingScenario.node[14].appl rxPackets_41_97 36
scalar SlicingScenario.node[14].appl rxNeighborPackets_41_97 405
scalar SlicingScenario.node[14].appl meanDelay_41_97 0.002068863352
scalar SlicingScenario.node[14].appl meanJitter_41_97 5.9192042e-05
scalar SlicingScenario.node[14].appl meanRxPacketSize_41_97 1510
scalar SlicingScenario.node[14].appl meanTxPacketSize_41_97 0
scalar SlicingScenario.node[14].appl meanRxThroughput_41_97 6212.5713977525
scalar SlicingScenario.node[14].appl meanTxThroughput_41_97 0
scalar SlicingScenario.node[14].appl rxTimeOfService_41_97 70.000000347251
scalar SlicingScenario.node[14].appl txTimeOfService_41_97 0
scalar SlicingScenario.node[14].nic.phy80211p busyTime 0.027617217391304
scalar SlicingScenario.node[14].nic.phy80211p ncollisions 0
scalar SlicingScenario.node[14].nic.phy80211p UnderSensitivityPackets 172
scalar SlicingScenario.node[14].nic.mac1609_4 ReceivedUnicastPackets_CCH 0
scalar SlicingScenario.node[14].nic.mac1609_4 ReceivedBroadcasts_CCH 0
scalar SlicingScenario.node[14].nic.mac1609_4 SentPackets_CCH 0
scalar SlicingScenario.node[14].nic.mac1609_4 SentAcknowledgements_CCH 0
scalar SlicingScenario.node[14].nic.mac1609_4 SNIRLostPackets_CCH 0
scalar SlicingScenario.node[14].nic.mac1609_4 RXTXLostPackets_CCH 0
scalar SlicingScenario.node[14].nic.mac1609_4 TotalLostPackets_CCH 0
scalar SlicingScenario.node[14].nic.mac1609_4 DroppedPacketsInMac_CCH 0
scalar SlicingScenario.node[14].nic.mac1609_4 TooLittleTime_CCH 0
scalar SlicingScenario.node[14].nic.mac1609_4 TimesIntoBackoff_CCH 0
scalar SlicingScenario.node[14].nic.mac1609_4 SlotsBackoff_CCH 0
scalar SlicingScenario.node[14].nic.mac1609_4 NumInternalContention_CCH 0
scalar SlicingScenario.node[14].nic.mac1609_4 RemainingPacketsInEDCA_CCH 0
scalar SlicingScenario.node[14].nic.mac1609_4 totalBusyTime_CCH 0
scalar SlicingScenario.node[14].nic.mac1609_4 ReceivedUnicastPackets_SCH 0
scalar SlicingScenario.node[14].nic.mac1609_4 ReceivedBroadcasts_SCH 1231
scalar SlicingScenario.node[14].nic.mac1609_4 SentPackets_SCH 0
scalar SlicingScenario.node[14].nic.mac1609_4 SentAcknowledgements_SCH 0
scalar SlicingScenario.node[14].nic.mac1609_4 SNIRLostPackets_SCH 0
scalar SlicingScenario.node[14].nic.mac1609_4 RXTXLostPackets_SCH 0
scalar SlicingScenario.node[14].nic.mac1609_4 TotalLostPackets_SCH 0
scalar SlicingScenario.node[14].nic.mac1609_4 DroppedPacketsInMac_SCH 0
scalar SlicingScenario.node[14].nic.mac1609_4 TooLittleTime_SCH 0
scalar SlicingScenario.node[14].nic.mac1609_4 TimesIntoBackoff_SCH 0
scalar SlicingScenario.node[14].nic.mac1609_4 SlotsBackoff_SCH 0
scalar SlicingScenario.node[14].nic.mac1609_4 NumInternalContention_SCH 0
scalar SlicingScenario.node[14].nic.mac1609_4 RemainingPacketsInEDCA_SCH 0
scalar SlicingScenario.node[14].nic.mac1609_4 totalBusyTime_SCH 2.540784
scalar SlicingScenario.node[14].veinsmobility startTime 15
scalar SlicingScenario.node[14].veinsmobility totalTime 91
scalar SlicingScenario.node[14].veinsmobility stopTime 107
scalar SlicingScenario.node[14].veinsmobility minSpeed 10.615011779605
scalar SlicingScenario.node[14].veinsmobility maxSpeed 11.10995870085
scalar SlicingScenario.node[14].veinsmobility totalDistance 979.68805497509
scalar SlicingScenario.node[14].veinsmobility totalCO2Emission 158.32923894877
scalar SlicingScenario.node[15].appl txPackets_103 0
scalar SlicingScenario.node[15].appl rxPackets_103 0
scalar SlicingScenario.node[15].appl rxNeighborPackets_103 0
scalar SlicingScenario.node[15].appl meanDelay_103 0
scalar SlicingScenario.node[15].appl meanJitter_103 0
scalar SlicingScenario.node[15].appl meanRxPacketSize_103 0
scalar SlicingScenario.node[15].appl meanTxPacketSize_103 0
scalar SlicingScenario.node[15].appl meanRxThroughput_103 0
scalar SlicingScenario.node[15].appl meanTxThroughput_103 0
scalar SlicingScenario.node[15].appl rxTimeOfService_103 0
scalar SlicingScenario.node[15].appl txTimeOfService_103 0
scalar SlicingScenario.node[15].appl txPackets_40_103 0
scalar SlicingScenario.node[15].appl rxPackets_40_103 36
scalar SlicingScenario.node[15].appl rxNeighborPackets_40_103 784
scalar SlicingScenario.node[15].appl meanDelay_40_103 0.002072100905
scalar SlicingScenario.node[15].appl meanJitter_40_103 5.9641964e-05
scalar SlicingScenario.node[15].appl meanRxPacketSize_40_103 1510
scalar SlicingScenario.node[15].appl meanTxPacketSize_40_103 0
scalar SlicingScenario.node[15].appl meanRxThroughput_40_103 6212.5718356159
scalar SlicingScenario.node[15].appl meanTxThroughput_40_103 0
scalar SlicingScenario.node[15].appl rxTimeOfService_40_103 69.999995413636
scalar SlicingScenario.node[15].appl txTimeOfService_40_103 0
scalar SlicingScenario.node[15].nic.phy80211p busyTime 0.02871652173913
scalar SlicingScenario.node[15].nic.phy80211p ncollisions 0
scalar SlicingScenario.node[15].nic.phy80211p UnderSensitivityPackets 123
scalar SlicingScenario.node[15].nic.mac1609_4 ReceivedUnicastPackets_CCH 0
scalar SlicingScenario.node[15].nic.mac1609_4 ReceivedBroadcasts_CCH 0
scalar SlicingScenario.node[15].nic.mac1609_4 SentPackets_CCH 0
scalar SlicingScenario.node[15].nic.mac1609_4 SentAcknowledgements_CCH 0
scalar SlicingScenario.node[15].nic.mac1609_4 SNIRLostPackets_CCH 0
scalar SlicingScenario.node[15].nic.mac1609_4 RXTXLostPackets_CCH 0
scalar SlicingScenario.node[15].nic.mac1609_4 TotalLostPackets_CCH 0
scalar SlicingScenario.node[15].nic.mac1609_4 DroppedPacketsInMac_CCH 0
scalar SlicingScenario.node[15].nic.mac1609_4 TooLittleTime_CCH 0
scalar SlicingScenario.node[15].nic.mac1609_4 TimesIntoBackoff_CCH 0
scalar SlicingScenario.node[15].nic.mac1609_4 SlotsBackoff_CCH 0
scalar SlicingScenario.node[15].nic.mac1609_4 NumInternalContention_CCH 0
scalar SlicingScenario.node[15].nic.mac1609_4 RemainingPacketsInEDCA_CCH 0
scalar SlicingScenario.node[15].nic.mac1609_4 totalBusyTime_CCH 0
scalar SlicingScenario.node[15].nic.mac1609_4 ReceivedUnicastPackets_SCH 0
scalar SlicingScenario.node[15].nic.mac1609_4 ReceivedBroadcasts_SCH 1280
scalar SlicingScenario.node[15].nic.mac1609_4 SentPackets_SCH 0
scalar SlicingScenario.node[15].nic.mac1609_4 SentAcknowledgements_SCH 0
scalar SlicingScenario.node[15].nic.mac1609_4 SNIRLostPackets_SCH 0
scalar SlicingScenario.node[15].nic.mac1609_4 RXTXLostPackets_SCH 0
scalar SlicingScenario.node[15].nic.mac1609_4 TotalLostPackets_SCH 0
scalar SlicingScenario.node[15].nic.mac1609_4 DroppedPacketsInMac_SCH 0
scalar SlicingScenario.node[15].nic.mac1609_4 TooLittleTime_SCH 0
scalar SlicingScenario.node[15].nic.mac1609_4 TimesIntoBackoff_SCH 0
scalar SlicingScenario.node[15].nic.mac1609_4 SlotsBackoff_SCH 0
scalar SlicingScenario.node[15].nic.mac1609_4 NumInternalContention_SCH 0
scalar SlicingScenario.node[15].nic.mac1609_4 RemainingPacketsInEDCA_SCH 0
scalar SlicingScenario.node[15].nic.mac1609_4 totalBusyTime_SCH 2.64192
scalar SlicingScenario.node[15].veinsmobility startTime 16
scalar SlicingScenario.node[15].veinsmobility totalTime 91
scalar SlicingScenario.node[15].veinsmobility stopTime 108
scalar SlicingScenario.node[15].veinsmobility minSpeed 10.619682513424
scalar SlicingScenario.node[15].veinsmobility maxSpeed 11.106493489947
scalar SlicingScenario.node[15].veinsmobility totalDistance 979.40862071841
scalar SlicingScenario.node[15].veinsmobility totalCO2Emission 158.52489685693
scalar SlicingScenario.node[16].appl txPackets_109 0
scalar SlicingScenario.node[16].appl rxPackets_109 0
scalar SlicingScenario.node[16].appl rxNeighborPackets_109 0
scalar SlicingScenario.node[16].appl meanDelay_109 0
scalar SlicingScenario.node[16].appl meanJitter_109 0
scalar SlicingScenario.node[16].appl meanRxPacketSize_109 0
scalar SlicingScenario.node[16].appl meanTxPacketSize_109 0
scalar SlicingScenario.node[16].appl meanRxThroughput_109 0
scalar SlicingScenario.node[16].appl meanTxThroughput_109 0
scalar SlicingScenario.node[16].appl rxTimeOfService_109 0
scalar SlicingScenario.node[16].appl txTimeOfService_109 0
scalar SlicingScenario.node[16].appl txPackets_40_109 0
scalar SlicingScenario.node[16].appl rxPackets_40_109 35
scalar SlicingScenario.node[16].appl rxNeighborPackets_40_109 780
scalar SlicingScenario.node[16].appl meanDelay_40_109 0.002073750698
scalar SlicingScenario.node[16].appl meanJitter_40_109 6.1378745e-05
scalar SlicingScenario.node[16].appl meanRxPacketSize_40_109 1510
scalar SlicingScenario.node[16].appl meanTxPacketSize_40_109 0
scalar SlicingScenario.node[16].appl meanRxThroughput_40_109 6217.6478447866
scalar SlicingScenario.node[16].appl meanTxThroughput_40_109 0
scalar SlicingScenario.node[16].appl rxTimeOfService_40_109 67.999991404227
scalar SlicingScenario.node[16].appl txTimeOfService_40_109 0
scalar SlicingScenario.node[16].nic.phy80211p busyTime 0.028537043478261
scalar SlicingScenario.node[16].nic.phy80211p ncollisions 0
scalar SlicingScenario.node[16].nic.phy80211p UnderSensitivityPackets 177
scalar SlicingScenario.node[16].nic.mac1609_4 ReceivedUnicastPackets_CCH 0
scalar SlicingScenario.node[16].nic.mac1609_4 ReceivedBroadcasts_CCH 0
scalar SlicingScenario.node[16].nic.mac1609_4 SentPackets_CCH 0
scalar SlicingScenario.node[16].nic.mac1609_4 SentAcknowledgements_CCH 0
scalar SlicingScenario.node[16].nic.mac1609_4 SNIRLostPackets_CCH 0
scalar SlicingScenario.node[16].nic.mac1609_4 RXTXLostPackets_CCH 0
scalar SlicingScenario.node[16].nic.mac1609_4 TotalLostPackets_CCH 0
scalar SlicingScenario.node[16].nic.mac1609_4 DroppedPacketsInMac_CCH 0
scalar SlicingScenario.node[16].nic.mac1609_4 TooLittleTime_CCH 0
scalar SlicingScenario.node[16].nic.mac1609_4 TimesIntoBackoff_CCH 0
scalar SlicingScenario.node[16].nic.mac1609_4 SlotsBackoff_CCH 0
scalar SlicingScenario.node[16].nic.mac1609_4 NumInternalContention_CCH 0
scalar SlicingScenario.node[16].nic.mac1609_4 RemainingPacketsInEDCA_CCH 0
scalar SlicingScenario.node[16].nic.mac1609_4 totalBusyTime_CCH 0
scalar SlicingScenario.node[16].nic.mac1609_4 ReceivedUnicastPackets_SCH 0
scalar SlicingScenario.node[16].nic.mac1609_4 ReceivedBroadcasts_SCH 1272
scalar SlicingScenario.node[16].nic.mac1609_4 SentPackets_SCH 0
scalar SlicingScenario.node[16].nic.mac1609_4 SentAcknowledgements_SCH 0
scalar SlicingScenario.node[16].nic.mac1609_4 SNIRLostPackets_SCH 0
scalar SlicingScenario.node[16].nic.mac1609_4 RXTXLostPackets_SCH 0
scalar SlicingScenario.node[16].nic.mac1609_4 TotalLostPackets_SCH 0
scalar SlicingScenario.node[16].nic.mac1609_4 DroppedPacketsInMac_SCH 0
scalar SlicingScenario.node[16].nic.mac1609_4 TooLittleTime_SCH 0
scalar SlicingScenario.node[16].nic.mac1609_4 TimesIntoBackoff_SCH 0
scalar SlicingScenario.node[16].nic.mac1609_4 SlotsBackoff_SCH 0
scalar SlicingScenario.node[16].nic.mac1609_4 NumInternalContention_SCH 0
scalar SlicingScenario.node[16].nic.mac1609_4 RemainingPacketsInEDCA_SCH 0
scalar SlicingScenario.node[16].nic.mac1609_4 totalBusyTime_SCH 2.625408
scalar SlicingScenario.node[16].veinsmobility startTime 17
scalar SlicingScenario.node[16].veinsmobility totalTime 91
scalar SlicingScenario.node[16].veinsmobility stopTime 109
scalar SlicingScenario.node[16].veinsmobility minSpeed 10.619569443762
scalar SlicingScenario.node[16].veinsmobility maxSpeed 11.109775408651
scalar SlicingScenario.node[16].veinsmobility totalDistance 977.88112555604
scalar SlicingScenario.node[16].veinsmobility totalCO2Emission 159.45388050295
scalar SlicingScenario.node[17].appl txPackets_115 0
scalar SlicingScenario.node[17].appl rxPackets_115 0
scalar SlicingScenario.node[17].appl rxNeighborPackets_115 0
scalar SlicingScenario.node[17].appl meanDelay_115 0
scalar SlicingScenario.node[17].appl meanJitter_115 0
scalar SlicingScenario.node[17].appl meanRxPacketSize_115 0
scalar SlicingScenario.node[17].appl meanTxPacketSize_115 0
scalar SlicingScenario.node[17].appl meanRxThroughput_115 0
scalar SlicingScenario.node[17].appl meanTxThroughput_115 0
scalar SlicingScenario.node[17].appl rxTimeOfService_115 0
scalar SlicingScenario.node[17].appl txTimeOfService_115 0
scalar SlicingScenario.node[17].appl txPackets_40_115 0
scalar SlicingScenario.node[17].appl rxPackets_40_115 35
scalar SlicingScenario.node[17].appl rxNeighborPackets_40_115 810
scalar SlicingScenario.node[17].appl meanDelay_40_115 0.002212928241
scalar SlicingScenario.node[17].appl meanJitter_40_115 8.7759927e-05
scalar SlicingScenario.node[17].appl meanRxPacketSize_40_115 1510
scalar SlicingScenario.node[17].appl meanTxPacketSize_40_115 0
scalar SlicingScenario.node[17].appl meanRxThroughput_40_115 6217.5682895314
scalar SlicingScenario.node[17].appl meanTxThroughput_40_115 0
scalar SlicingScenario.node[17].appl rxTimeOfService_40_115 68.000861480183
scalar SlicingScenario.node[17].appl txTimeOfService_40_115 0
scalar SlicingScenario.node[17].nic.phy80211p busyTime 0.029658782608695
scalar SlicingScenario.node[17].nic.phy80211p ncollisions 0
scalar SlicingScenario.node[17].nic.phy80211p UnderSensitivityPackets 127
scalar SlicingScenario.node[17].nic.mac1609_4 ReceivedUnicastPackets_CCH 0
scalar SlicingScenario.node[17].nic.mac1609_4 ReceivedBroadcasts_CCH 0
scalar SlicingScenario.node[17].nic.mac1609_4 SentPackets_CCH 0
scalar SlicingScenario.node[17].nic.mac1609_4 SentAcknowledgements_CCH 0
scalar SlicingScenario.node[17].nic.mac1609_4 SNIRLostPackets_CCH 0
scalar SlicingScenario.node[17].nic.mac1609_4 RXTXLostPackets_CCH 0
scalar SlicingScenario.node[17].nic.mac1609_4 TotalLostPackets_CCH 0
scalar SlicingScenario.node[17].nic.mac1609_4 DroppedPacketsInMac_CCH 0
scalar SlicingScenario.node[17].nic.mac1609_4 TooLittleTime_CCH 0
scalar SlicingScenario.node[17].nic.mac1609_4 TimesIntoBackoff_CCH 0
scalar SlicingScenario.node[17].nic.mac1609_4 SlotsBackoff_CCH 0
scalar SlicingScenario.node[17].nic.mac1609_4 NumInternalContention_CCH 0
scalar SlicingScenario.node[17].nic.mac1609_4 RemainingPacketsInEDCA_CCH 0
scalar SlicingScenario.node[17].nic.mac1609_4 totalBusyTime_CCH 0
scalar SlicingScenario.node[17].nic.mac1609_4 ReceivedUnicastPackets_SCH 0
scalar SlicingScenario.node[17].nic.mac1609_4 ReceivedBroadcasts_SCH 1322
scalar SlicingScenario.node[17].nic.mac1609_4 SentPackets_SCH 0
scalar SlicingScenario.node[17].nic.mac1609_4 SentAcknowledgements_SCH 0
scalar SlicingScenario.node[17].nic.mac1609_4 SNIRLostPackets_SCH 0
scalar SlicingScenario.node[17].nic.mac1609_4 RXTXLostPackets_SCH 0
scalar SlicingScenario.node[17].nic.mac1609_4 TotalLostPackets_SCH 0
scalar SlicingScenario.node[17].nic.mac1609_4 DroppedPacketsInMac_SCH 0
scalar SlicingScenario.node[17].nic.mac1609_4 TooLittleTime_SCH 0
scalar SlicingScenario.node[17].nic.mac1609_4 TimesIntoBackoff_SCH 0
scalar SlicingScenario.node[17].nic.mac1609_4 SlotsBackoff_SCH 0
scalar SlicingScenario.node[17].nic.mac1609_4 NumInternalContention_SCH 0
scalar SlicingScenario.node[17].nic.mac1609_4 RemainingPacketsInEDCA_SCH 0
scalar SlicingScenario.node[17].nic.mac1609_4 totalBusyTime_SCH 2.728608
scalar SlicingScenario.node[17].veinsmobility startTime 18
scalar SlicingScenario.node[17].veinsmobility totalTime 91
scalar SlicingScenario.node[17].veinsmobility stopTime 110
scalar SlicingScenario.node[17].veinsmobility minSpeed 10.614775638343
scalar SlicingScenario.node[17].veinsmobility maxSpeed 11.109849045998
scalar SlicingScenario.node[17].veinsmobility totalDistance 978.32656360379
scalar SlicingScenario.node[17].veinsmobility totalCO2Emission 159.56998039038
scalar SlicingScenario.node[19].appl txPackets_127 0
scalar SlicingScenario.node[19].appl rxPackets_127 0
scalar SlicingScenario.node[19].appl rxNeighborPackets_127 0
scalar SlicingScenario.node[19].appl meanDelay_127 0
scalar SlicingScenario.node[19].appl meanJitter_127 0
scalar SlicingScenario.node[19].appl meanRxPacketSize_127 0
scalar SlicingScenario.node[19].appl meanTxPacketSize_127 0
scalar SlicingScenario.node[19].appl meanRxThroughput_127 0
scalar SlicingScenario.node[19].appl meanTxThroughput_127 0
scalar SlicingScenario.node[19].appl rxTimeOfService_127 0
scalar SlicingScenario.node[19].appl txTimeOfService_127 0
scalar SlicingScenario.node[19].appl txPackets_41_127 0
scalar SlicingScenario.node[19].appl rxPackets_41_127 34
scalar SlicingScenario.node[19].appl rxNeighborPackets_41_127 460
scalar SlicingScenario.node[19].appl meanDelay_41_127 0.004629940233
scalar SlicingScenario.node[19].appl meanJitter_41_127 0.000224049486
scalar SlicingScenario.node[19].appl meanRxPacketSize_41_127 1510
scalar SlicingScenario.node[19].appl meanTxPacketSize_41_127 0
scalar SlicingScenario.node[19].appl meanRxThroughput_41_127 6222.8166004199
scalar SlicingScenario.node[19].appl meanTxThroughput_41_127 0
scalar SlicingScenario.node[19].appl rxTimeOfService_41_127 66.002266557604
scalar SlicingScenario.node[19].appl txTimeOfService_41_127 0
scalar SlicingScenario.node[19].nic.phy80211p busyTime 0.03060104347826
scalar SlicingScenario.node[19].nic.phy80211p ncollisions 0
scalar SlicingScenario.node[19].nic.phy80211p UnderSensitivityPackets 131
scalar SlicingScenario.node[19].nic.mac1609_4 ReceivedUnicastPackets_CCH 0
scalar SlicingScenario.node[19].nic.mac1609_4 ReceivedBroadcasts_CCH 0
scalar SlicingScenario.node[19].nic.mac1609_4 SentPackets_CCH 0
scalar SlicingScenario.node[19].nic.mac1609_4 SentAcknowledgements_CCH 0
scalar SlicingScenario.node[19].nic.mac1609_4 SNIRLostPackets_CCH 0
scalar SlicingScenario.node[19].nic.mac1609_4 RXTXLostPackets_CCH 0
scalar SlicingScenario.node[19].nic.mac1609_4 TotalLostPackets_CCH 0
scalar SlicingScenario.node[19].nic.mac1609_4 DroppedPacketsInMac_CCH 0
scalar SlicingScenario.node[19].nic.mac1609_4 TooLittleTime_CCH 0
scalar SlicingScenario.node[19].nic.mac1609_4 TimesIntoBackoff_CCH 0
scalar SlicingScenario.node[19].nic.mac1609_4 SlotsBackoff_CCH 0
scalar SlicingScenario.node[19].nic.mac1609_4 NumInternalContention_CCH 0
scalar SlicingScenario.node[19].nic.mac1609_4 RemainingPacketsInEDCA_CCH 0
scalar SlicingScenario.node[19].nic.mac1609_4 totalBusyTime_CCH 0
scalar SlicingScenario.node[19].nic.mac1609_4 ReceivedUnicastPackets_SCH 0
scalar SlicingScenario.node[19].nic.mac1609_4 ReceivedBroadcasts_SCH 1364
scalar SlicingScenario.node[19].nic.mac1609_4 SentPackets_SCH 0
scalar SlicingScenario.node[19].nic.mac1609_4 SentAcknowledgements_SCH 0
scalar SlicingScenario.node[19].nic.mac1609_4 SNIRLostPackets_SCH 0
scalar SlicingScenario.node[19].nic.mac1609_4 RXTXLostPackets_SCH 0
scalar SlicingScenario.node[19].nic.mac1609_4 TotalLostPackets_SCH 0
scalar SlicingScenario.node[19].nic.mac1609_4 DroppedPacketsInMac_SCH 0
scalar SlicingScenario.node[19].nic.mac1609_4 TooLittleTime_SCH 0
scalar SlicingScenario.node[19].nic.mac1609_4 TimesIntoBackoff_SCH 0
scalar SlicingScenario.node[19].nic.mac1609_4 SlotsBackoff_SCH 0
scalar SlicingScenario.node[19].nic.mac1609_4 NumInternalContention_SCH 0
scalar SlicingScenario.node[19].nic.mac1609_4 RemainingPacketsInEDCA_SCH 0
scalar SlicingScenario.node[19].nic.mac1609_4 totalBusyTime_SCH 2.815296
scalar SlicingScenario.node[19].veinsmobility startTime 20
scalar SlicingScenario.node[19].veinsmobility totalTime 91
scalar SlicingScenario.node[19].veinsmobility stopTime 112
scalar SlicingScenario.node[19].veinsmobility minSpeed 10.611390922116
scalar SlicingScenario.node[19].veinsmobility maxSpeed 11.105640589274
scalar SlicingScenario.node[19].veinsmobility totalDistance 978.86225956658
scalar SlicingScenario.node[19].veinsmobility totalCO2Emission 159.44701892727
scalar SlicingScenario.node[18].appl txPackets_121 0
scalar SlicingScenario.node[18].appl rxPackets_121 0
scalar SlicingScenario.node[18].appl rxNeighborPackets_121 0
scalar SlicingScenario.node[18].appl meanDelay_121 0
scalar SlicingScenario.node[18].appl meanJitter_121 0
scalar SlicingScenario.node[18].appl meanRxPacketSize_121 0
scalar SlicingScenario.node[18].appl meanTxPacketSize_121 0
scalar SlicingScenario.node[18].appl meanRxThroughput_121 0
scalar SlicingScenario.node[18].appl meanTxThroughput_121 0
scalar SlicingScenario.node[18].appl rxTimeOfService_121 0
scalar SlicingScenario.node[18].appl txTimeOfService_121 0
scalar SlicingScenario.node[18].appl txPackets_40_121 0
scalar SlicingScenario.node[18].appl rxPackets_40_121 35
scalar SlicingScenario.node[18].appl rxNeighborPackets_40_121 835
scalar SlicingScenario.node[18].appl meanDelay_40_121 0.002070098494
scalar SlicingScenario.node[18].appl meanJitter_40_121 6.0963569e-05
scalar SlicingScenario.node[18].appl meanRxPacketSize_40_121 1510
scalar SlicingScenario.node[18].appl meanTxPacketSize_40_121 0
scalar SlicingScenario.node[18].appl meanRxThroughput_40_121 6217.6470132895
scalar SlicingScenario.node[18].appl meanTxThroughput_40_121 0
scalar SlicingScenario.node[18].appl rxTimeOfService_40_121 68.000000497988
scalar SlicingScenario.node[18].appl txTimeOfService_40_121 0
scalar SlicingScenario.node[18].nic.phy80211p busyTime 0.030272
scalar SlicingScenario.node[18].nic.phy80211p ncollisions 0
scalar SlicingScenario.node[18].nic.phy80211p UnderSensitivityPackets 132
scalar SlicingScenario.node[18].nic.mac1609_4 ReceivedUnicastPackets_CCH 0
scalar SlicingScenario.node[18].nic.mac1609_4 ReceivedBroadcasts_CCH 0
scalar SlicingScenario.node[18].nic.mac1609_4 SentPackets_CCH 0
[...]
scalar SlicingScenario.rsu[0].appl rxPackets_41_625 0
scalar SlicingScenario.rsu[0].appl rxNeighborPackets_41_625 0
scalar SlicingScenario.rsu[0].appl meanDelay_41_625 0
scalar SlicingScenario.rsu[0].appl meanJitter_41_625 0
scalar SlicingScenario.rsu[0].appl meanRxPacketSize_41_625 0
scalar SlicingScenario.rsu[0].appl meanTxPacketSize_41_625 1510
scalar SlicingScenario.rsu[0].appl meanRxThroughput_41_625 0
scalar SlicingScenario.rsu[0].appl meanTxThroughput_41_625 6081.3698630137
scalar SlicingScenario.rsu[0].appl rxTimeOfService_41_625 0
scalar SlicingScenario.rsu[0].appl txTimeOfService_41_625 292
scalar SlicingScenario.rsu[0].appl txPackets_41_649 143
scalar SlicingScenario.rsu[0].appl rxPackets_41_649 0
scalar SlicingScenario.rsu[0].appl rxNeighborPackets_41_649 0
scalar SlicingScenario.rsu[0].appl meanDelay_41_649 0
scalar SlicingScenario.rsu[0].appl meanJitter_41_649 0
scalar SlicingScenario.rsu[0].appl meanRxPacketSize_41_649 0
scalar SlicingScenario.rsu[0].appl meanTxPacketSize_41_649 1510
scalar SlicingScenario.rsu[0].appl meanRxThroughput_41_649 0
scalar SlicingScenario.rsu[0].appl meanTxThroughput_41_649 6082.5352112676
scalar SlicingScenario.rsu[0].appl rxTimeOfService_41_649 0
scalar SlicingScenario.rsu[0].appl txTimeOfService_41_649 284
scalar SlicingScenario.rsu[0].appl txPackets_41_655 142
scalar SlicingScenario.rsu[0].appl rxPackets_41_655 0
scalar SlicingScenario.rsu[0].appl rxNeighborPackets_41_655 0
scalar SlicingScenario.rsu[0].appl meanDelay_41_655 0
scalar SlicingScenario.rsu[0].appl meanJitter_41_655 0
scalar SlicingScenario.rsu[0].appl meanRxPacketSize_41_655 0
scalar SlicingScenario.rsu[0].appl meanTxPacketSize_41_655 1510
scalar SlicingScenario.rsu[0].appl meanRxThroughput_41_655 0
scalar SlicingScenario.rsu[0].appl meanTxThroughput_41_655 6082.8368794326
scalar SlicingScenario.rsu[0].appl rxTimeOfService_41_655 0
scalar SlicingScenario.rsu[0].appl txTimeOfService_41_655 282
scalar SlicingScenario.rsu[0].appl txPackets_41_661 141
scalar SlicingScenario.rsu[0].appl rxPackets_41_661 0
scalar SlicingScenario.rsu[0].appl rxNeighborPackets_41_661 0
scalar SlicingScenario.rsu[0].appl meanDelay_41_661 0
scalar SlicingScenario.rsu[0].appl meanJitter_41_661 0
scalar SlicingScenario.rsu[0].appl meanRxPacketSize_41_661 0
scalar SlicingScenario.rsu[0].appl meanTxPacketSize_41_661 1510
scalar SlicingScenario.rsu[0].appl meanRxThroughput_41_661 0
scalar SlicingScenario.rsu[0].appl meanTxThroughput_41_661 6083.1428571429
scalar SlicingScenario.rsu[0].appl rxTimeOfService_41_661 0
scalar SlicingScenario.rsu[0].appl txTimeOfService_41_661 280
scalar SlicingScenario.rsu[0].appl txPackets_41_667 140
scalar SlicingScenario.rsu[0].appl rxPackets_41_667 0
scalar SlicingScenario.rsu[0].appl rxNeighborPackets_41_667 0
scalar SlicingScenario.rsu[0].appl meanDelay_41_667 0
scalar SlicingScenario.rsu[0].appl meanJitter_41_667 0
scalar SlicingScenario.rsu[0].appl meanRxPacketSize_41_667 0
scalar SlicingScenario.rsu[0].appl meanTxPacketSize_41_667 1510
scalar SlicingScenario.rsu[0].appl meanRxThroughput_41_667 0
scalar SlicingScenario.rsu[0].appl meanTxThroughput_41_667 6083.4532374101
scalar SlicingScenario.rsu[0].appl rxTimeOfService_41_667 0
scalar SlicingScenario.rsu[0].appl txTimeOfService_41_667 278
scalar SlicingScenario.rsu[0].appl txPackets_41_673 139
scalar SlicingScenario.rsu[0].appl rxPackets_41_673 0
scalar SlicingScenario.rsu[0].appl rxNeighborPackets_41_673 0
scalar SlicingScenario.rsu[0].appl meanDelay_41_673 0
scalar SlicingScenario.rsu[0].appl meanJitter_41_673 0
scalar SlicingScenario.rsu[0].appl meanRxPacketSize_41_673 0
scalar SlicingScenario.rsu[0].appl meanTxPacketSize_41_673 1510
scalar SlicingScenario.rsu[0].appl meanRxThroughput_41_673 0
scalar SlicingScenario.rsu[0].appl meanTxThroughput_41_673 6083.768115942
scalar SlicingScenario.rsu[0].appl rxTimeOfService_41_673 0
scalar SlicingScenario.rsu[0].appl txTimeOfService_41_673 276
scalar SlicingScenario.rsu[0].appl txPackets_41_697 135
scalar SlicingScenario.rsu[0].appl rxPackets_41_697 0
scalar SlicingScenario.rsu[0].appl rxNeighborPackets_41_697 0
scalar SlicingScenario.rsu[0].appl meanDelay_41_697 0
scalar SlicingScenario.rsu[0].appl meanJitter_41_697 0
scalar SlicingScenario.rsu[0].appl meanRxPacketSize_41_697 0
scalar SlicingScenario.rsu[0].appl meanTxPacketSize_41_697 1510
scalar SlicingScenario.rsu[0].appl meanRxThroughput_41_697 0
scalar SlicingScenario.rsu[0].appl meanTxThroughput_41_697 6085.0746268657
scalar SlicingScenario.rsu[0].appl rxTimeOfService_41_697 0
scalar SlicingScenario.rsu[0].appl txTimeOfService_41_697 268
scalar SlicingScenario.rsu[0].appl txPackets_41_703 134
scalar SlicingScenario.rsu[0].appl rxPackets_41_703 0
scalar SlicingScenario.rsu[0].appl rxNeighborPackets_41_703 0
scalar SlicingScenario.rsu[0].appl meanDelay_41_703 0
scalar SlicingScenario.rsu[0].appl meanJitter_41_703 0
scalar SlicingScenario.rsu[0].appl meanRxPacketSize_41_703 0
scalar SlicingScenario.rsu[0].appl meanTxPacketSize_41_703 1510
scalar SlicingScenario.rsu[0].appl meanRxThroughput_41_703 0
scalar SlicingScenario.rsu[0].appl meanTxThroughput_41_703 6085.4135338346
scalar SlicingScenario.rsu[0].appl rxTimeOfService_41_703 0
scalar SlicingScenario.rsu[0].appl txTimeOfService_41_703 266
scalar SlicingScenario.rsu[0].appl txPackets_41_721 131
scalar SlicingScenario.rsu[0].appl rxPackets_41_721 0
scalar SlicingScenario.rsu[0].appl rxNeighborPackets_41_721 0
scalar SlicingScenario.rsu[0].appl meanDelay_41_721 0
scalar SlicingScenario.rsu[0].appl meanJitter_41_721 0
scalar SlicingScenario.rsu[0].appl meanRxPacketSize_41_721 0
scalar SlicingScenario.rsu[0].appl meanTxPacketSize_41_721 1510
scalar SlicingScenario.rsu[0].appl meanRxThroughput_41_721 0
scalar SlicingScenario.rsu[0].appl meanTxThroughput_41_721 6086.4615384615
scalar SlicingScenario.rsu[0].appl rxTimeOfService_41_721 0
scalar SlicingScenario.rsu[0].appl txTimeOfService_41_721 260
scalar SlicingScenario.rsu[0].appl txPackets_41_739 128
scalar SlicingScenario.rsu[0].appl rxPackets_41_739 0
scalar SlicingScenario.rsu[0].appl rxNeighborPackets_41_739 0
scalar SlicingScenario.rsu[0].appl meanDelay_41_739 0
scalar SlicingScenario.rsu[0].appl meanJitter_41_739 0
scalar SlicingScenario.rsu[0].appl meanRxPacketSize_41_739 0
scalar SlicingScenario.rsu[0].appl meanTxPacketSize_41_739 1510
scalar SlicingScenario.rsu[0].appl meanRxThroughput_41_739 0
scalar SlicingScenario.rsu[0].appl meanTxThroughput_41_739 6087.5590551181
scalar SlicingScenario.rsu[0].appl rxTimeOfService_41_739 0
scalar SlicingScenario.rsu[0].appl txTimeOfService_41_739 254
scalar SlicingScenario.rsu[0].appl txPackets_41_775 122
scalar SlicingScenario.rsu[0].appl rxPackets_41_775 0
scalar SlicingScenario.rsu[0].appl rxNeighborPackets_41_775 0
scalar SlicingScenario.rsu[0].appl meanDelay_41_775 0
scalar SlicingScenario.rsu[0].appl meanJitter_41_775 0
scalar SlicingScenario.rsu[0].appl meanRxPacketSize_41_775 0
scalar SlicingScenario.rsu[0].appl meanTxPacketSize_41_775 1510
scalar SlicingScenario.rsu[0].appl meanRxThroughput_41_775 0
scalar SlicingScenario.rsu[0].appl meanTxThroughput_41_775 6089.9173553719
scalar SlicingScenario.rsu[0].appl rxTimeOfService_41_775 0
scalar SlicingScenario.rsu[0].appl txTimeOfService_41_775 242
scalar SlicingScenario.rsu[0].appl txPackets_41_811 116
scalar SlicingScenario.rsu[0].appl rxPackets_41_811 0
scalar SlicingScenario.rsu[0].appl rxNeighborPackets_41_811 0
scalar SlicingScenario.rsu[0].appl meanDelay_41_811 0
scalar SlicingScenario.rsu[0].appl meanJitter_41_811 0
scalar SlicingScenario.rsu[0].appl meanRxPacketSize_41_811 0
scalar SlicingScenario.rsu[0].appl meanTxPacketSize_41_811 1510
scalar SlicingScenario.rsu[0].appl meanRxThroughput_41_811 0
scalar SlicingScenario.rsu[0].appl meanTxThroughput_41_811 6092.5217391304
scalar SlicingScenario.rsu[0].appl rxTimeOfService_41_811 0
scalar SlicingScenario.rsu[0].appl txTimeOfService_41_811 230
scalar SlicingScenario.rsu[0].appl txPackets_41_817 115
scalar SlicingScenario.rsu[0].appl rxPackets_41_817 0
scalar SlicingScenario.rsu[0].appl rxNeighborPackets_41_817 0
scalar SlicingScenario.rsu[0].appl meanDelay_41_817 0
scalar SlicingScenario.rsu[0].appl meanJitter_41_817 0
scalar SlicingScenario.rsu[0].appl meanRxPacketSize_41_817 0
scalar SlicingScenario.rsu[0].appl meanTxPacketSize_41_817 1510
scalar SlicingScenario.rsu[0].appl meanRxThroughput_41_817 0
scalar SlicingScenario.rsu[0].appl meanTxThroughput_41_817 6092.9824561404
scalar SlicingScenario.rsu[0].appl rxTimeOfService_41_817 0
scalar SlicingScenario.rsu[0].appl txTimeOfService_41_817 228
scalar SlicingScenario.rsu[0].appl txPackets_41_835 112
scalar SlicingScenario.rsu[0].appl rxPackets_41_835 0
scalar SlicingScenario.rsu[0].appl rxNeighborPackets_41_835 0
scalar SlicingScenario.rsu[0].appl meanDelay_41_835 0
scalar SlicingScenario.rsu[0].appl meanJitter_41_835 0
scalar SlicingScenario.rsu[0].appl meanRxPacketSize_41_835 0
scalar SlicingScenario.rsu[0].appl meanTxPacketSize_41_835 1510
scalar SlicingScenario.rsu[0].appl meanRxThroughput_41_835 0
scalar SlicingScenario.rsu[0].appl meanTxThroughput_41_835 6094.4144144144
scalar SlicingScenario.rsu[0].appl rxTimeOfService_41_835 0
scalar SlicingScenario.rsu[0].appl txTimeOfService_41_835 222
scalar SlicingScenario.rsu[0].appl txPackets_41_841 111
scalar SlicingScenario.rsu[0].appl rxPackets_41_841 0
scalar SlicingScenario.rsu[0].appl rxNeighborPackets_41_841 0
scalar SlicingScenario.rsu[0].appl meanDelay_41_841 0
scalar SlicingScenario.rsu[0].appl meanJitter_41_841 0
scalar SlicingScenario.rsu[0].appl meanRxPacketSize_41_841 0
scalar SlicingScenario.rsu[0].appl meanTxPacketSize_41_841 1510
scalar SlicingScenario.rsu[0].appl meanRxThroughput_41_841 0
scalar SlicingScenario.rsu[0].appl meanTxThroughput_41_841 6094.9090909091
scalar SlicingScenario.rsu[0].appl rxTimeOfService_41_841 0
scalar SlicingScenario.rsu[0].appl txTimeOfService_41_841 220
scalar SlicingScenario.rsu[0].appl txPackets_41_853 109
scalar SlicingScenario.rsu[0].appl rxPackets_41_853 0
scalar SlicingScenario.rsu[0].appl rxNeighborPackets_41_853 0
scalar SlicingScenario.rsu[0].appl meanDelay_41_853 0
scalar SlicingScenario.rsu[0].appl meanJitter_41_853 0
scalar SlicingScenario.rsu[0].appl meanRxPacketSize_41_853 0
scalar SlicingScenario.rsu[0].appl meanTxPacketSize_41_853 1510
scalar SlicingScenario.rsu[0].appl meanRxThroughput_41_853 0
scalar SlicingScenario.rsu[0].appl meanTxThroughput_41_853 6095.9259259259
scalar SlicingScenario.rsu[0].appl rxTimeOfService_41_853 0
scalar SlicingScenario.rsu[0].appl txTimeOfService_41_853 216
scalar SlicingScenario.rsu[0].appl txPackets_41_877 105
scalar SlicingScenario.rsu[0].appl rxPackets_41_877 0
scalar SlicingScenario.rsu[0].appl rxNeighborPackets_41_877 0
scalar SlicingScenario.rsu[0].appl meanDelay_41_877 0
scalar SlicingScenario.rsu[0].appl meanJitter_41_877 0
scalar SlicingScenario.rsu[0].appl meanRxPacketSize_41_877 0
scalar SlicingScenario.rsu[0].appl meanTxPacketSize_41_877 1510
scalar SlicingScenario.rsu[0].appl meanRxThroughput_41_877 0
scalar SlicingScenario.rsu[0].appl meanTxThroughput_41_877 6098.0769230769
scalar SlicingScenario.rsu[0].appl rxTimeOfService_41_877 0
scalar SlicingScenario.rsu[0].appl txTimeOfService_41_877 208
scalar SlicingScenario.rsu[0].appl txPackets_41_883 104
scalar SlicingScenario.rsu[0].appl rxPackets_41_883 0
scalar SlicingScenario.rsu[0].appl rxNeighborPackets_41_883 0
scalar SlicingScenario.rsu[0].appl meanDelay_41_883 0
scalar SlicingScenario.rsu[0].appl meanJitter_41_883 0
scalar SlicingScenario.rsu[0].appl meanRxPacketSize_41_883 0
scalar SlicingScenario.rsu[0].appl meanTxPacketSize_41_883 1510
scalar SlicingScenario.rsu[0].appl meanRxThroughput_41_883 0
scalar SlicingScenario.rsu[0].appl meanTxThroughput_41_883 6098.640776699
scalar SlicingScenario.rsu[0].appl rxTimeOfService_41_883 0
scalar SlicingScenario.rsu[0].appl txTimeOfService_41_883 206
scalar SlicingScenario.rsu[0].appl txPackets_41_889 103
scalar SlicingScenario.rsu[0].appl rxPackets_41_889 0
scalar SlicingScenario.rsu[0].appl rxNeighborPackets_41_889 0
scalar SlicingScenario.rsu[0].appl meanDelay_41_889 0
scalar SlicingScenario.rsu[0].appl meanJitter_41_889 0
scalar SlicingScenario.rsu[0].appl meanRxPacketSize_41_889 0
scalar SlicingScenario.rsu[0].appl meanTxPacketSize_41_889 1510
scalar SlicingScenario.rsu[0].appl meanRxThroughput_41_889 0
scalar SlicingScenario.rsu[0].appl meanTxThroughput_41_889 6099.2156862745
scalar SlicingScenario.rsu[0].appl rxTimeOfService_41_889 0
scalar SlicingScenario.rsu[0].appl txTimeOfService_41_889 204
scalar SlicingScenario.rsu[0].appl txPackets_41_901 101
scalar SlicingScenario.rsu[0].appl rxPackets_41_901 0
scalar SlicingScenario.rsu[0].appl rxNeighborPackets_41_901 0
scalar SlicingScenario.rsu[0].appl meanDelay_41_901 0
scalar SlicingScenario.rsu[0].appl meanJitter_41_901 0
scalar SlicingScenario.rsu[0].appl meanRxPacketSize_41_901 0
scalar SlicingScenario.rsu[0].appl meanTxPacketSize_41_901 1510
scalar SlicingScenario.rsu[0].appl meanRxThroughput_41_901 0
scalar SlicingScenario.rsu[0].appl meanTxThroughput_41_901 6100.4
scalar SlicingScenario.rsu[0].appl rxTimeOfService_41_901 0
scalar SlicingScenario.rsu[0].appl txTimeOfService_41_901 200
scalar SlicingScenario.rsu[0].appl txPackets_41_907 100
scalar SlicingScenario.rsu[0].appl rxPackets_41_907 0
scalar SlicingScenario.rsu[0].appl rxNeighborPackets_41_907 0
scalar SlicingScenario.rsu[0].appl meanDelay_41_907 0
scalar SlicingScenario.rsu[0].appl meanJitter_41_907 0
scalar SlicingScenario.rsu[0].appl meanRxPacketSize_41_907 0
scalar SlicingScenario.rsu[0].appl meanTxPacketSize_41_907 1510
scalar SlicingScenario.rsu[0].appl meanRxThroughput_41_907 0
scalar SlicingScenario.rsu[0].appl meanTxThroughput_41_907 6101.0101010101
scalar SlicingScenario.rsu[0].appl rxTimeOfService_41_907 0
scalar SlicingScenario.rsu[0].appl txTimeOfService_41_907 198
scalar SlicingScenario.rsu[0].appl txPackets_41_913 99
scalar SlicingScenario.rsu[0].appl rxPackets_41_913 0
scalar SlicingScenario.rsu[0].appl rxNeighborPackets_41_913 0
scalar SlicingScenario.rsu[0].appl meanDelay_41_913 0
scalar SlicingScenario.rsu[0].appl meanJitter_41_913 0
scalar SlicingScenario.rsu[0].appl meanRxPacketSize_41_913 0
scalar SlicingScenario.rsu[0].appl meanTxPacketSize_41_913 1510
scalar SlicingScenario.rsu[0].appl meanRxThroughput_41_913 0
scalar SlicingScenario.rsu[0].appl meanTxThroughput_41_913 6101.6326530612
scalar SlicingScenario.rsu[0].appl rxTimeOfService_41_913 0
scalar SlicingScenario.rsu[0].appl txTimeOfService_41_913 196
scalar SlicingScenario.rsu[0].appl txPackets_41_919 98
scalar SlicingScenario.rsu[0].appl rxPackets_41_919 0
scalar SlicingScenario.rsu[0].appl rxNeighborPackets_41_919 0
scalar SlicingScenario.rsu[0].appl meanDelay_41_919 0
scalar SlicingScenario.rsu[0].appl meanJitter_41_919 0
scalar SlicingScenario.rsu[0].appl meanRxPacketSize_41_919 0
scalar SlicingScenario.rsu[0].appl meanTxPacketSize_41_919 1510
scalar SlicingScenario.rsu[0].appl meanRxThroughput_41_919 0
scalar SlicingScenario.rsu[0].appl meanTxThroughput_41_919 6102.2680412371
scalar SlicingScenario.rsu[0].appl rxTimeOfService_41_919 0
scalar SlicingScenario.rsu[0].appl txTimeOfService_41_919 194
scalar SlicingScenario.rsu[0].appl txPackets_41_943 94
scalar SlicingScenario.rsu[0].appl rxPackets_41_943 0
scalar SlicingScenario.rsu[0].appl rxNeighborPackets_41_943 0
scalar SlicingScenario.rsu[0].appl meanDelay_41_943 0
scalar SlicingScenario.rsu[0].appl meanJitter_41_943 0
scalar SlicingScenario.rsu[0].appl meanRxPacketSize_41_943 0
scalar SlicingScenario.rsu[0].appl meanTxPacketSize_41_943 1510
scalar SlicingScenario.rsu[0].appl meanRxThroughput_41_943 0
scalar SlicingScenario.rsu[0].appl meanTxThroughput_41_943 6104.9462365591
scalar SlicingScenario.rsu[0].appl rxTimeOfService_41_943 0
scalar SlicingScenario.rsu[0].appl txTimeOfService_41_943 186
scalar SlicingScenario.rsu[0].appl txPackets_41_955 92
scalar SlicingScenario.rsu[0].appl rxPackets_41_955 0
scalar SlicingScenario.rsu[0].appl rxNeighborPackets_41_955 0
scalar SlicingScenario.rsu[0].appl meanDelay_41_955 0
scalar SlicingScenario.rsu[0].appl meanJitter_41_955 0
scalar SlicingScenario.rsu[0].appl meanRxPacketSize_41_955 0
scalar SlicingScenario.rsu[0].appl meanTxPacketSize_41_955 1510
scalar SlicingScenario.rsu[0].appl meanRxThroughput_41_955 0
scalar SlicingScenario.rsu[0].appl meanTxThroughput_41_955 6106.3736263736
scalar SlicingScenario.rsu[0].appl rxTimeOfService_41_955 0
scalar SlicingScenario.rsu[0].appl txTimeOfService_41_955 182
scalar SlicingScenario.rsu[0].appl txPackets_41_961 91
scalar SlicingScenario.rsu[0].appl rxPackets_41_961 0
scalar SlicingScenario.rsu[0].appl rxNeighborPackets_41_961 0
scalar SlicingScenario.rsu[0].appl meanDelay_41_961 0
scalar SlicingScenario.rsu[0].appl meanJitter_41_961 0
scalar SlicingScenario.rsu[0].appl meanRxPacketSize_41_961 0
scalar SlicingScenario.rsu[0].appl meanTxPacketSize_41_961 1510
scalar SlicingScenario.rsu[0].appl meanRxThroughput_41_961 0
scalar SlicingScenario.rsu[0].appl meanTxThroughput_41_961 6107.1111111111
scalar SlicingScenario.rsu[0].appl rxTimeOfService_41_961 0
scalar SlicingScenario.rsu[0].appl txTimeOfService_41_961 180
scalar SlicingScenario.rsu[0].appl txPackets_41_967 90
scalar SlicingScenario.rsu[0].appl rxPackets_41_967 0
scalar SlicingScenario.rsu[0].appl rxNeighborPackets_41_967 0
scalar SlicingScenario.rsu[0].appl meanDelay_41_967 0
scalar SlicingScenario.rsu[0].appl meanJitter_41_967 0
scalar SlicingScenario.rsu[0].appl meanRxPacketSize_41_967 0
scalar SlicingScenario.rsu[0].appl meanTxPacketSize_41_967 1510
scalar SlicingScenario.rsu[0].appl meanRxThroughput_41_967 0
scalar SlicingScenario.rsu[0].appl meanTxThroughput_41_967 6107.8651685393
scalar SlicingScenario.rsu[0].appl rxTimeOfService_41_967 0
scalar SlicingScenario.rsu[0].appl txTimeOfService_41_967 178
scalar SlicingScenario.rsu[0].nic.phy80211p busyTime 0
scalar SlicingScenario.rsu[0].nic.phy80211p ncollisions 0
scalar SlicingScenario.rsu[0].nic.phy80211p UnderSensitivityPackets 0
scalar SlicingScenario.rsu[0].nic.mac1609_4 ReceivedUnicastPackets_CCH 0
scalar SlicingScenario.rsu[0].nic.mac1609_4 ReceivedBroadcasts_CCH 0
scalar SlicingScenario.rsu[0].nic.mac1609_4 SentPackets_CCH 0
scalar SlicingScenario.rsu[0].nic.mac1609_4 SentAcknowledgements_CCH 0
scalar SlicingScenario.rsu[0].nic.mac1609_4 SNIRLostPackets_CCH 0
scalar SlicingScenario.rsu[0].nic.mac1609_4 RXTXLostPackets_CCH 0
scalar SlicingScenario.rsu[0].nic.mac1609_4 TotalLostPackets_CCH 0
scalar SlicingScenario.rsu[0].nic.mac1609_4 DroppedPacketsInMac_CCH 0
scalar SlicingScenario.rsu[0].nic.mac1609_4 TooLittleTime_CCH 0
scalar SlicingScenario.rsu[0].nic.mac1609_4 TimesIntoBackoff_CCH 0
scalar SlicingScenario.rsu[0].nic.mac1609_4 SlotsBackoff_CCH 0
scalar SlicingScenario.rsu[0].nic.mac1609_4 NumInternalContention_CCH 0
scalar SlicingScenario.rsu[0].nic.mac1609_4 RemainingPacketsInEDCA_CCH 0
scalar SlicingScenario.rsu[0].nic.mac1609_4 totalBusyTime_CCH 0
scalar SlicingScenario.rsu[0].nic.mac1609_4 ReceivedUnicastPackets_SCH 0
scalar SlicingScenario.rsu[0].nic.mac1609_4 ReceivedBroadcasts_SCH 0
scalar SlicingScenario.rsu[0].nic.mac1609_4 SentPackets_SCH 27116
scalar SlicingScenario.rsu[0].nic.mac1609_4 SentAcknowledgements_SCH 0
scalar SlicingScenario.rsu[0].nic.mac1609_4 SNIRLostPackets_SCH 0
scalar SlicingScenario.rsu[0].nic.mac1609_4 RXTXLostPackets_SCH 0
scalar SlicingScenario.rsu[0].nic.mac1609_4 TotalLostPackets_SCH 0
scalar SlicingScenario.rsu[0].nic.mac1609_4 DroppedPacketsInMac_SCH 0
scalar SlicingScenario.rsu[0].nic.mac1609_4 TooLittleTime_SCH 22927
scalar SlicingScenario.rsu[0].nic.mac1609_4 TimesIntoBackoff_SCH 28713
scalar SlicingScenario.rsu[0].nic.mac1609_4 SlotsBackoff_SCH 94741
scalar SlicingScenario.rsu[0].nic.mac1609_4 NumInternalContention_SCH 0
scalar SlicingScenario.rsu[0].nic.mac1609_4 RemainingPacketsInEDCA_SCH 0
scalar SlicingScenario.rsu[0].nic.mac1609_4 totalBusyTime_SCH 55.99454

