version 2
run General-2-20190316-16:18:10-4952
attr configname General
attr datetime 20190316-16:18:10
attr experiment General
attr inifile omnetpp.ini
attr iterationvars "$vehicles=0.1, $msgSizeA=1500B, $serviceMsgInterval=0.04s, $msgSizeB=10000B"
attr iterationvarsf vehicles=0.1,msgSizeA=1500B,serviceMsgInterval=0.04s,msgSizeB=10000B-
attr measurement "$vehicles=0.1, $msgSizeA=1500B, $serviceMsgInterval=0.04s, $msgSizeB=10000B"
attr network com.liborio.slicing.SlicingScenario
attr processid 4952
attr repetition 2
attr replication #2
attr resultdir results
attr runnumber 2
attr seedset 2
itervar msgSizeA 1500B
itervar msgSizeB 10000B
itervar serviceMsgInterval 0.04s
itervar vehicles 0.1
param **.debug false
param **.coreDebug false
param *.playgroundSizeX 1200m
param *.playgroundSizeY 1200m
param *.playgroundSizeZ 50m
param *.annotations.draw true
param *.manager.updateInterval 1s
param *.manager.host "\"localhost\""
param *.manager.port 9999
param *.manager.autoShutdown true
param *.manager.launchConfig "xmldoc(\"highway-\"+string(0.1)+\".launchd.xml\")"
param *.connectionManager.sendDirect true
param *.connectionManager.maxInterfDist 2600m
param *.connectionManager.drawMaxIntfDist false
param *.rsu[*].applType "\"RSUApp\""
param *.rsu[*].appl.headerLength "80 bit"
param *.rsu[*].appl.sendBeacons false
param *.rsu[*].appl.dataOnSch true
param *.rsu[*].appl.beaconInterval 1s
param *.rsu[*].appl.beaconUserPriority 7
param *.rsu[*].appl.dataUserPriority 5
param *.rsu[*].appl.entMsgADataLengthBytes 1500B
param *.rsu[*].appl.entMsgAUserPriority 4
param *.rsu[*].appl.entMsgAInterval 0.04s
param *.rsu[*].appl.entMsgBDataLengthBytes 10000B
param *.rsu[*].appl.entMsgBUserPriority 4
param *.rsu[*].appl.entMsgBInterval 0.04s
param *.rsu[*].nic.mac1609_4.useServiceChannel true
param *.rsu[*].nic.mac1609_4.txPower 20mW
param *.rsu[*].nic.mac1609_4.bitrate 6Mbps
param *.rsu[*].nic.phy80211p.sensitivity -90.00dBm
param *.rsu[0].mobility.x 515.0
param *.rsu[0].mobility.y 25.0
param *.rsu[0].mobility.z 3
param *.node[*].applType "\"VehApp\""
param *.node[*].appl.headerLength "80 bit"
param *.node[*].appl.sendBeacons false
param *.node[*].appl.dataOnSch true
param *.node[*].appl.beaconInterval 1s
param *.node[*].appl.wsaInterval 1s
param *.node[*].appl.entMsgADataLengthBits 1500B
param *.node[*].appl.entMsgAUserPriority 4
param *.node[*].appl.entMsgAInterval 0.04s
param *.node[*].appl.entMsgBDataLengthBits 10000B
param *.node[*].appl.entMsgBUserPriority 4
param *.node[*].appl.entMsgBInterval 0.04s
param *.node[*].nic.mac1609_4.useServiceChannel true
param *.node[*].nic.mac1609_4.txPower 20mW
param *.node[*].nic.mac1609_4.bitrate 6Mbps
param *.node[*].nic.phy80211p.sensitivity -90.00dBm
param *.node[*].veinsmobilityType.debug true
param *.node[*].veinsmobility.x 0
param *.node[*].veinsmobility.y 0
param *.node[*].veinsmobility.z 1.895
param *.**.nic.phy80211p.useThermalNoise true
param *.**.nic.phy80211p.thermalNoise -110dBm
param *.**.nic.phy80211p.decider "xmldoc(\"config.xml\")"
param *.**.nic.phy80211p.analogueModels "xmldoc(\"config.xml\")"
param *.**.nic.phy80211p.usePropagationDelay true
param *.**.nic.phy80211p.antenna "xmldoc(\"antenna.xml\", \"/root/Antenna[@id='monopole']\")"
param *.**.nic.phy80211p.collectCollisionStatistics true
param *.**.nic.phy80211p.allowTxDuringRx false

scalar SlicingScenario.node[1].appl txPackets_CCH_19 0
scalar SlicingScenario.node[1].appl rxPackets_CCH_19 0
scalar SlicingScenario.node[1].appl rxNeighborPackets_CCH_19 0
scalar SlicingScenario.node[1].appl meanDelay_CCH_19 0
scalar SlicingScenario.node[1].appl meanJitter_CCH_19 0
scalar SlicingScenario.node[1].appl meanRxPacketSize_CCH_19 0
scalar SlicingScenario.node[1].appl meanTxPacketSize_CCH_19 0
scalar SlicingScenario.node[1].appl meanRxThroughput_CCH_19 0
scalar SlicingScenario.node[1].appl meanTxThroughput_CCH_19 0
scalar SlicingScenario.node[1].appl rxTimeOfService_CCH_19 0
scalar SlicingScenario.node[1].appl txTimeOfService_CCH_19 0
scalar SlicingScenario.node[1].appl txPackets_SCH_41_19 0
scalar SlicingScenario.node[1].appl rxPackets_SCH_41_19 2086
scalar SlicingScenario.node[1].appl rxNeighborPackets_SCH_41_19 13694
scalar SlicingScenario.node[1].appl meanDelay_SCH_41_19 26.747257215019
scalar SlicingScenario.node[1].appl meanJitter_SCH_41_19 0.034759617
scalar SlicingScenario.node[1].appl meanRxPacketSize_SCH_41_19 1438
scalar SlicingScenario.node[1].appl meanTxPacketSize_SCH_41_19 0
scalar SlicingScenario.node[1].appl meanRxThroughput_SCH_41_19 282703.34442586
scalar SlicingScenario.node[1].appl meanTxThroughput_SCH_41_19 0
scalar SlicingScenario.node[1].appl rxTimeOfService_SCH_41_19 84.918981233687
scalar SlicingScenario.node[1].appl txTimeOfService_SCH_41_19 0
scalar SlicingScenario.node[1].nic.phy80211p busyTime 0.36710347826091
scalar SlicingScenario.node[1].nic.phy80211p ncollisions 0
scalar SlicingScenario.node[1].nic.phy80211p UnderSensitivityPackets 1292
scalar SlicingScenario.node[1].nic.mac1609_4 ReceivedUnicastPackets_CCH 0
scalar SlicingScenario.node[1].nic.mac1609_4 ReceivedBroadcasts_CCH 71
scalar SlicingScenario.node[1].nic.mac1609_4 SentPackets_CCH 0
scalar SlicingScenario.node[1].nic.mac1609_4 SentAcknowledgements_CCH 0
scalar SlicingScenario.node[1].nic.mac1609_4 SNIRLostPackets_CCH 0
scalar SlicingScenario.node[1].nic.mac1609_4 RXTXLostPackets_CCH 0
scalar SlicingScenario.node[1].nic.mac1609_4 TotalLostPackets_CCH 0
scalar SlicingScenario.node[1].nic.mac1609_4 DroppedPacketsInMac_CCH 0
scalar SlicingScenario.node[1].nic.mac1609_4 TooLittleTime_CCH 0
scalar SlicingScenario.node[1].nic.mac1609_4 TimesIntoBackoff_CCH 0
scalar SlicingScenario.node[1].nic.mac1609_4 SlotsBackoff_CCH 0
scalar SlicingScenario.node[1].nic.mac1609_4 NumInternalContention_CCH 0
scalar SlicingScenario.node[1].nic.mac1609_4 RemainingPacketsInEDCA_CCH 0
scalar SlicingScenario.node[1].nic.mac1609_4 totalBusyTime_CCH 0.270275370224
scalar SlicingScenario.node[1].nic.mac1609_4 ReceivedUnicastPackets_SCH 0
scalar SlicingScenario.node[1].nic.mac1609_4 ReceivedBroadcasts_SCH 17025
scalar SlicingScenario.node[1].nic.mac1609_4 SentPackets_SCH 0
scalar SlicingScenario.node[1].nic.mac1609_4 SentAcknowledgements_SCH 0
scalar SlicingScenario.node[1].nic.mac1609_4 SNIRLostPackets_SCH 0
scalar SlicingScenario.node[1].nic.mac1609_4 RXTXLostPackets_SCH 0
scalar SlicingScenario.node[1].nic.mac1609_4 TotalLostPackets_SCH 0
scalar SlicingScenario.node[1].nic.mac1609_4 DroppedPacketsInMac_SCH 0
scalar SlicingScenario.node[1].nic.mac1609_4 TooLittleTime_SCH 0
scalar SlicingScenario.node[1].nic.mac1609_4 TimesIntoBackoff_SCH 0
scalar SlicingScenario.node[1].nic.mac1609_4 SlotsBackoff_SCH 0
scalar SlicingScenario.node[1].nic.mac1609_4 NumInternalContention_SCH 0
scalar SlicingScenario.node[1].nic.mac1609_4 RemainingPacketsInEDCA_SCH 0
scalar SlicingScenario.node[1].nic.mac1609_4 totalBusyTime_SCH 33.635664
scalar SlicingScenario.node[1].veinsmobility startTime 1
scalar SlicingScenario.node[1].veinsmobility totalTime 91
scalar SlicingScenario.node[1].veinsmobility stopTime 93
scalar SlicingScenario.node[1].veinsmobility minSpeed 10.613807442845
scalar SlicingScenario.node[1].veinsmobility maxSpeed 11.10889548053
scalar SlicingScenario.node[1].veinsmobility totalDistance 978.62369791037
scalar SlicingScenario.node[1].veinsmobility totalCO2Emission 159.52345279663
scalar SlicingScenario.node[3].appl txPackets_CCH_31 0
scalar SlicingScenario.node[3].appl rxPackets_CCH_31 0
scalar SlicingScenario.node[3].appl rxNeighborPackets_CCH_31 0
scalar SlicingScenario.node[3].appl meanDelay_CCH_31 0
scalar SlicingScenario.node[3].appl meanJitter_CCH_31 0
scalar SlicingScenario.node[3].appl meanRxPacketSize_CCH_31 0
scalar SlicingScenario.node[3].appl meanTxPacketSize_CCH_31 0
scalar SlicingScenario.node[3].appl meanRxThroughput_CCH_31 0
scalar SlicingScenario.node[3].appl meanTxThroughput_CCH_31 0
scalar SlicingScenario.node[3].appl rxTimeOfService_CCH_31 0
scalar SlicingScenario.node[3].appl txTimeOfService_CCH_31 0
scalar SlicingScenario.node[3].appl txPackets_SCH_41_31 0
scalar SlicingScenario.node[3].appl rxPackets_SCH_41_31 2107
scalar SlicingScenario.node[3].appl rxNeighborPackets_SCH_41_31 13282
scalar SlicingScenario.node[3].appl meanDelay_SCH_41_31 25.857820846272
scalar SlicingScenario.node[3].appl meanJitter_SCH_41_31 0.034527434984
scalar SlicingScenario.node[3].appl meanRxPacketSize_SCH_41_31 1438
scalar SlicingScenario.node[3].appl meanTxPacketSize_SCH_41_31 0
scalar SlicingScenario.node[3].appl meanRxThroughput_SCH_41_31 284619.46365234
scalar SlicingScenario.node[3].appl meanTxThroughput_SCH_41_31 0
scalar SlicingScenario.node[3].appl rxTimeOfService_SCH_41_31 85.196422229293
scalar SlicingScenario.node[3].appl txTimeOfService_SCH_41_31 0
scalar SlicingScenario.node[3].nic.phy80211p busyTime 0.35801530434788
scalar SlicingScenario.node[3].nic.phy80211p ncollisions 0
scalar SlicingScenario.node[3].nic.phy80211p UnderSensitivityPackets 1715
scalar SlicingScenario.node[3].nic.mac1609_4 ReceivedUnicastPackets_CCH 0
scalar SlicingScenario.node[3].nic.mac1609_4 ReceivedBroadcasts_CCH 0
scalar SlicingScenario.node[3].nic.mac1609_4 SentPackets_CCH 0
scalar SlicingScenario.node[3].nic.mac1609_4 SentAcknowledgements_CCH 0
scalar SlicingScenario.node[3].nic.mac1609_4 SNIRLostPackets_CCH 0
scalar SlicingScenario.node[3].nic.mac1609_4 RXTXLostPackets_CCH 0
scalar SlicingScenario.node[3].nic.mac1609_4 TotalLostPackets_CCH 0
scalar SlicingScenario.node[3].nic.mac1609_4 DroppedPacketsInMac_CCH 0
scalar SlicingScenario.node[3].nic.mac1609_4 TooLittleTime_CCH 0
scalar SlicingScenario.node[3].nic.mac1609_4 TimesIntoBackoff_CCH 0
scalar SlicingScenario.node[3].nic.mac1609_4 SlotsBackoff_CCH 0
scalar SlicingScenario.node[3].nic.mac1609_4 NumInternalContention_CCH 0
scalar SlicingScenario.node[3].nic.mac1609_4 RemainingPacketsInEDCA_CCH 0
scalar SlicingScenario.node[3].nic.mac1609_4 totalBusyTime_CCH 0
scalar SlicingScenario.node[3].nic.mac1609_4 ReceivedUnicastPackets_SCH 0
scalar SlicingScenario.node[3].nic.mac1609_4 ReceivedBroadcasts_SCH 16673
scalar SlicingScenario.node[3].nic.mac1609_4 SentPackets_SCH 0
scalar SlicingScenario.node[3].nic.mac1609_4 SentAcknowledgements_SCH 0
scalar SlicingScenario.node[3].nic.mac1609_4 SNIRLostPackets_SCH 0
scalar SlicingScenario.node[3].nic.mac1609_4 RXTXLostPackets_SCH 0
scalar SlicingScenario.node[3].nic.mac1609_4 TotalLostPackets_SCH 0
scalar SlicingScenario.node[3].nic.mac1609_4 DroppedPacketsInMac_SCH 0
scalar SlicingScenario.node[3].nic.mac1609_4 TooLittleTime_SCH 0
scalar SlicingScenario.node[3].nic.mac1609_4 TimesIntoBackoff_SCH 0
scalar SlicingScenario.node[3].nic.mac1609_4 SlotsBackoff_SCH 0
scalar SlicingScenario.node[3].nic.mac1609_4 NumInternalContention_SCH 0
scalar SlicingScenario.node[3].nic.mac1609_4 RemainingPacketsInEDCA_SCH 0
scalar SlicingScenario.node[3].nic.mac1609_4 totalBusyTime_SCH 32.935344
scalar SlicingScenario.node[3].veinsmobility startTime 1
scalar SlicingScenario.node[3].veinsmobility totalTime 91
scalar SlicingScenario.node[3].veinsmobility stopTime 93
scalar SlicingScenario.node[3].veinsmobility minSpeed 10.612524868702
scalar SlicingScenario.node[3].veinsmobility maxSpeed 11.103491330999
scalar SlicingScenario.node[3].veinsmobility totalDistance 977.28453452769
scalar SlicingScenario.node[3].veinsmobility totalCO2Emission 159.56254501645
scalar SlicingScenario.node[2].appl txPackets_CCH_25 0
scalar SlicingScenario.node[2].appl rxPackets_CCH_25 0
scalar SlicingScenario.node[2].appl rxNeighborPackets_CCH_25 0
scalar SlicingScenario.node[2].appl meanDelay_CCH_25 0
scalar SlicingScenario.node[2].appl meanJitter_CCH_25 0
scalar SlicingScenario.node[2].appl meanRxPacketSize_CCH_25 0
scalar SlicingScenario.node[2].appl meanTxPacketSize_CCH_25 0
scalar SlicingScenario.node[2].appl meanRxThroughput_CCH_25 0
scalar SlicingScenario.node[2].appl meanTxThroughput_CCH_25 0
scalar SlicingScenario.node[2].appl rxTimeOfService_CCH_25 0
scalar SlicingScenario.node[2].appl txTimeOfService_CCH_25 0
scalar SlicingScenario.node[2].appl txPackets_SCH_40_25 0
scalar SlicingScenario.node[2].appl rxPackets_SCH_40_25 291
scalar SlicingScenario.node[2].appl rxNeighborPackets_SCH_40_25 1012
scalar SlicingScenario.node[2].appl meanDelay_SCH_40_25 26.94981769118
scalar SlicingScenario.node[2].appl meanJitter_SCH_40_25 0.250002479832
scalar SlicingScenario.node[2].appl meanRxPacketSize_SCH_40_25 1510
scalar SlicingScenario.node[2].appl meanTxPacketSize_SCH_40_25 0
scalar SlicingScenario.node[2].appl meanRxThroughput_SCH_40_25 41546.660123006
scalar SlicingScenario.node[2].appl meanTxThroughput_SCH_40_25 0
scalar SlicingScenario.node[2].appl rxTimeOfService_SCH_40_25 84.610411272349
scalar SlicingScenario.node[2].appl txTimeOfService_SCH_40_25 0
scalar SlicingScenario.node[2].nic.phy80211p busyTime 0.3625293913044
scalar SlicingScenario.node[2].nic.phy80211p ncollisions 0
scalar SlicingScenario.node[2].nic.phy80211p UnderSensitivityPackets 1505
scalar SlicingScenario.node[2].nic.mac1609_4 ReceivedUnicastPackets_CCH 0
scalar SlicingScenario.node[2].nic.mac1609_4 ReceivedBroadcasts_CCH 0
scalar SlicingScenario.node[2].nic.mac1609_4 SentPackets_CCH 0
scalar SlicingScenario.node[2].nic.mac1609_4 SentAcknowledgements_CCH 0
scalar SlicingScenario.node[2].nic.mac1609_4 SNIRLostPackets_CCH 0
scalar SlicingScenario.node[2].nic.mac1609_4 RXTXLostPackets_CCH 0
scalar SlicingScenario.node[2].nic.mac1609_4 TotalLostPackets_CCH 0
scalar SlicingScenario.node[2].nic.mac1609_4 DroppedPacketsInMac_CCH 0
scalar SlicingScenario.node[2].nic.mac1609_4 TooLittleTime_CCH 0
scalar SlicingScenario.node[2].nic.mac1609_4 TimesIntoBackoff_CCH 0
scalar SlicingScenario.node[2].nic.mac1609_4 SlotsBackoff_CCH 0
scalar SlicingScenario.node[2].nic.mac1609_4 NumInternalContention_CCH 0
scalar SlicingScenario.node[2].nic.mac1609_4 RemainingPacketsInEDCA_CCH 0
scalar SlicingScenario.node[2].nic.mac1609_4 totalBusyTime_CCH 0
scalar SlicingScenario.node[2].nic.mac1609_4 ReceivedUnicastPackets_SCH 0
scalar SlicingScenario.node[2].nic.mac1609_4 ReceivedBroadcasts_SCH 16883
scalar SlicingScenario.node[2].nic.mac1609_4 SentPackets_SCH 0
scalar SlicingScenario.node[2].nic.mac1609_4 SentAcknowledgements_SCH 0
scalar SlicingScenario.node[2].nic.mac1609_4 SNIRLostPackets_SCH 0
scalar SlicingScenario.node[2].nic.mac1609_4 RXTXLostPackets_SCH 0
scalar SlicingScenario.node[2].nic.mac1609_4 TotalLostPackets_SCH 0
scalar SlicingScenario.node[2].nic.mac1609_4 DroppedPacketsInMac_SCH 0
scalar SlicingScenario.node[2].nic.mac1609_4 TooLittleTime_SCH 0
scalar SlicingScenario.node[2].nic.mac1609_4 TimesIntoBackoff_SCH 0
scalar SlicingScenario.node[2].nic.mac1609_4 SlotsBackoff_SCH 0
scalar SlicingScenario.node[2].nic.mac1609_4 NumInternalContention_SCH 0
scalar SlicingScenario.node[2].nic.mac1609_4 RemainingPacketsInEDCA_SCH 0
scalar SlicingScenario.node[2].nic.mac1609_4 totalBusyTime_SCH 33.35064
scalar SlicingScenario.node[2].veinsmobility startTime 1
scalar SlicingScenario.node[2].veinsmobility totalTime 91
scalar SlicingScenario.node[2].veinsmobility stopTime 93
scalar SlicingScenario.node[2].veinsmobility minSpeed 10.61809776294
scalar SlicingScenario.node[2].veinsmobility maxSpeed 11.107873705928
scalar SlicingScenario.node[2].veinsmobility totalDistance 979.17606247233
scalar SlicingScenario.node[2].veinsmobility totalCO2Emission 158.49818601442
scalar SlicingScenario.node[0].appl txPackets_CCH_13 0
scalar SlicingScenario.node[0].appl rxPackets_CCH_13 0
scalar SlicingScenario.node[0].appl rxNeighborPackets_CCH_13 0
scalar SlicingScenario.node[0].appl meanDelay_CCH_13 0
scalar SlicingScenario.node[0].appl meanJitter_CCH_13 0
scalar SlicingScenario.node[0].appl meanRxPacketSize_CCH_13 0
scalar SlicingScenario.node[0].appl meanTxPacketSize_CCH_13 0
scalar SlicingScenario.node[0].appl meanRxThroughput_CCH_13 0
scalar SlicingScenario.node[0].appl meanTxThroughput_CCH_13 0
scalar SlicingScenario.node[0].appl rxTimeOfService_CCH_13 0
scalar SlicingScenario.node[0].appl txTimeOfService_CCH_13 0
scalar SlicingScenario.node[0].appl txPackets_SCH_41_13 0
scalar SlicingScenario.node[0].appl rxPackets_SCH_41_13 2107
scalar SlicingScenario.node[0].appl rxNeighborPackets_SCH_41_13 13673
scalar SlicingScenario.node[0].appl meanDelay_SCH_41_13 26.535790335334
scalar SlicingScenario.node[0].appl meanJitter_SCH_41_13 0.034481885316
scalar SlicingScenario.node[0].appl meanRxPacketSize_SCH_41_13 1438
scalar SlicingScenario.node[0].appl meanTxPacketSize_SCH_41_13 0
scalar SlicingScenario.node[0].appl meanRxThroughput_SCH_41_13 284592.85040202
scalar SlicingScenario.node[0].appl meanTxThroughput_SCH_41_13 0
scalar SlicingScenario.node[0].appl rxTimeOfService_SCH_41_13 85.204389237979
scalar SlicingScenario.node[0].appl txTimeOfService_SCH_41_13 0
scalar SlicingScenario.node[0].nic.phy80211p busyTime 0.36710347826091
scalar SlicingScenario.node[0].nic.phy80211p ncollisions 0
scalar SlicingScenario.node[0].nic.phy80211p UnderSensitivityPackets 1292
scalar SlicingScenario.node[0].nic.mac1609_4 ReceivedUnicastPackets_CCH 0
scalar SlicingScenario.node[0].nic.mac1609_4 ReceivedBroadcasts_CCH 0
scalar SlicingScenario.node[0].nic.mac1609_4 SentPackets_CCH 0
scalar SlicingScenario.node[0].nic.mac1609_4 SentAcknowledgements_CCH 0
scalar SlicingScenario.node[0].nic.mac1609_4 SNIRLostPackets_CCH 0
scalar SlicingScenario.node[0].nic.mac1609_4 RXTXLostPackets_CCH 0
scalar SlicingScenario.node[0].nic.mac1609_4 TotalLostPackets_CCH 0
scalar SlicingScenario.node[0].nic.mac1609_4 DroppedPacketsInMac_CCH 0
scalar SlicingScenario.node[0].nic.mac1609_4 TooLittleTime_CCH 0
scalar SlicingScenario.node[0].nic.mac1609_4 TimesIntoBackoff_CCH 0
scalar SlicingScenario.node[0].nic.mac1609_4 SlotsBackoff_CCH 0
scalar SlicingScenario.node[0].nic.mac1609_4 NumInternalContention_CCH 0
scalar SlicingScenario.node[0].nic.mac1609_4 RemainingPacketsInEDCA_CCH 0
scalar SlicingScenario.node[0].nic.mac1609_4 totalBusyTime_CCH 0
scalar SlicingScenario.node[0].nic.mac1609_4 ReceivedUnicastPackets_SCH 0
scalar SlicingScenario.node[0].nic.mac1609_4 ReceivedBroadcasts_SCH 17096
scalar SlicingScenario.node[0].nic.mac1609_4 SentPackets_SCH 0
scalar SlicingScenario.node[0].nic.mac1609_4 SentAcknowledgements_SCH 0
scalar SlicingScenario.node[0].nic.mac1609_4 SNIRLostPackets_SCH 0
scalar SlicingScenario.node[0].nic.mac1609_4 RXTXLostPackets_SCH 0
scalar SlicingScenario.node[0].nic.mac1609_4 TotalLostPackets_SCH 0
scalar SlicingScenario.node[0].nic.mac1609_4 DroppedPacketsInMac_SCH 0
scalar SlicingScenario.node[0].nic.mac1609_4 TooLittleTime_SCH 0
scalar SlicingScenario.node[0].nic.mac1609_4 TimesIntoBackoff_SCH 0
scalar SlicingScenario.node[0].nic.mac1609_4 SlotsBackoff_SCH 0
scalar SlicingScenario.node[0].nic.mac1609_4 NumInternalContention_SCH 0
scalar SlicingScenario.node[0].nic.mac1609_4 RemainingPacketsInEDCA_SCH 0
scalar SlicingScenario.node[0].nic.mac1609_4 totalBusyTime_SCH 33.771456
scalar SlicingScenario.node[0].veinsmobility startTime 1
scalar SlicingScenario.node[0].veinsmobility totalTime 91
scalar SlicingScenario.node[0].veinsmobility stopTime 93
scalar SlicingScenario.node[0].veinsmobility minSpeed 10.627451281892
scalar SlicingScenario.node[0].veinsmobility maxSpeed 11.109210822396
scalar SlicingScenario.node[0].veinsmobility totalDistance 979.91366332933
scalar SlicingScenario.node[0].veinsmobility totalCO2Emission 158.38362599915
scalar SlicingScenario.node[5].appl txPackets_CCH_43 0
scalar SlicingScenario.node[5].appl rxPackets_CCH_43 0
scalar SlicingScenario.node[5].appl rxNeighborPackets_CCH_43 0
scalar SlicingScenario.node[5].appl meanDelay_CCH_43 0
scalar SlicingScenario.node[5].appl meanJitter_CCH_43 0
scalar SlicingScenario.node[5].appl meanRxPacketSize_CCH_43 0
scalar SlicingScenario.node[5].appl meanTxPacketSize_CCH_43 0
scalar SlicingScenario.node[5].appl meanRxThroughput_CCH_43 0
scalar SlicingScenario.node[5].appl meanTxThroughput_CCH_43 0
scalar SlicingScenario.node[5].appl rxTimeOfService_CCH_43 0
scalar SlicingScenario.node[5].appl txTimeOfService_CCH_43 0
scalar SlicingScenario.node[5].appl txPackets_SCH_40_43 0
scalar SlicingScenario.node[5].appl rxPackets_SCH_40_43 266
scalar SlicingScenario.node[5].appl rxNeighborPackets_SCH_40_43 1083
scalar SlicingScenario.node[5].appl meanDelay_SCH_40_43 30.999388825124
scalar SlicingScenario.node[5].appl meanJitter_SCH_40_43 0.279454347683
scalar SlicingScenario.node[5].appl meanRxPacketSize_SCH_40_43 1510
scalar SlicingScenario.node[5].appl meanTxPacketSize_SCH_40_43 0
scalar SlicingScenario.node[5].appl meanRxThroughput_SCH_40_43 38715.23730337
scalar SlicingScenario.node[5].appl meanTxThroughput_SCH_40_43 0
scalar SlicingScenario.node[5].appl rxTimeOfService_SCH_40_43 82.997812329573
scalar SlicingScenario.node[5].appl txTimeOfService_SCH_40_43 0
scalar SlicingScenario.node[5].nic.phy80211p busyTime 0.37251716129036
scalar SlicingScenario.node[5].nic.phy80211p ncollisions 0
scalar SlicingScenario.node[5].nic.phy80211p UnderSensitivityPackets 1283
scalar SlicingScenario.node[5].nic.mac1609_4 ReceivedUnicastPackets_CCH 0
scalar SlicingScenario.node[5].nic.mac1609_4 ReceivedBroadcasts_CCH 136
scalar SlicingScenario.node[5].nic.mac1609_4 SentPackets_CCH 0
scalar SlicingScenario.node[5].nic.mac1609_4 SentAcknowledgements_CCH 0
scalar SlicingScenario.node[5].nic.mac1609_4 SNIRLostPackets_CCH 0
scalar SlicingScenario.node[5].nic.mac1609_4 RXTXLostPackets_CCH 0
scalar SlicingScenario.node[5].nic.mac1609_4 TotalLostPackets_CCH 0
scalar SlicingScenario.node[5].nic.mac1609_4 DroppedPacketsInMac_CCH 0
scalar SlicingScenario.node[5].nic.mac1609_4 TooLittleTime_CCH 0
scalar SlicingScenario.node[5].nic.mac1609_4 TimesIntoBackoff_CCH 0
scalar SlicingScenario.node[5].nic.mac1609_4 SlotsBackoff_CCH 0
scalar SlicingScenario.node[5].nic.mac1609_4 NumInternalContention_CCH 0
scalar SlicingScenario.node[5].nic.mac1609_4 RemainingPacketsInEDCA_CCH 0
scalar SlicingScenario.node[5].nic.mac1609_4 totalBusyTime_CCH 0.520014962966
scalar SlicingScenario.node[5].nic.mac1609_4 ReceivedUnicastPackets_SCH 0
scalar SlicingScenario.node[5].nic.mac1609_4 ReceivedBroadcasts_SCH 17401
scalar SlicingScenario.node[5].nic.mac1609_4 SentPackets_SCH 0
scalar SlicingScenario.node[5].nic.mac1609_4 SentAcknowledgements_SCH 0
scalar SlicingScenario.node[5].nic.mac1609_4 SNIRLostPackets_SCH 0
scalar SlicingScenario.node[5].nic.mac1609_4 RXTXLostPackets_SCH 0
scalar SlicingScenario.node[5].nic.mac1609_4 TotalLostPackets_SCH 0
scalar SlicingScenario.node[5].nic.mac1609_4 DroppedPacketsInMac_SCH 0
scalar SlicingScenario.node[5].nic.mac1609_4 TooLittleTime_SCH 0
scalar SlicingScenario.node[5].nic.mac1609_4 TimesIntoBackoff_SCH 0
scalar SlicingScenario.node[5].nic.mac1609_4 SlotsBackoff_SCH 0
scalar SlicingScenario.node[5].nic.mac1609_4 NumInternalContention_SCH 0
scalar SlicingScenario.node[5].nic.mac1609_4 RemainingPacketsInEDCA_SCH 0
scalar SlicingScenario.node[5].nic.mac1609_4 totalBusyTime_SCH 34.380816
scalar SlicingScenario.node[5].veinsmobility startTime 2
scalar SlicingScenario.node[5].veinsmobility totalTime 92
scalar SlicingScenario.node[5].veinsmobility stopTime 95
scalar SlicingScenario.node[5].veinsmobility minSpeed 8.2874998440249
scalar SlicingScenario.node[5].veinsmobility maxSpeed 11.100613688482
scalar SlicingScenario.node[5].veinsmobility totalDistance 981.64942045624
scalar SlicingScenario.node[5].veinsmobility totalCO2Emission 166.90928832546
scalar SlicingScenario.node[6].appl txPackets_CCH_49 0
scalar SlicingScenario.node[6].appl rxPackets_CCH_49 0
scalar SlicingScenario.node[6].appl rxNeighborPackets_CCH_49 0
scalar SlicingScenario.node[6].appl meanDelay_CCH_49 0
scalar SlicingScenario.node[6].appl meanJitter_CCH_49 0
scalar SlicingScenario.node[6].appl meanRxPacketSize_CCH_49 0
scalar SlicingScenario.node[6].appl meanTxPacketSize_CCH_49 0
scalar SlicingScenario.node[6].appl meanRxThroughput_CCH_49 0
scalar SlicingScenario.node[6].appl meanTxThroughput_CCH_49 0
scalar SlicingScenario.node[6].appl rxTimeOfService_CCH_49 0
scalar SlicingScenario.node[6].appl txTimeOfService_CCH_49 0
scalar SlicingScenario.node[6].appl txPackets_SCH_41_49 0
scalar SlicingScenario.node[6].appl rxPackets_SCH_41_49 1809
scalar SlicingScenario.node[6].appl rxNeighborPackets_SCH_41_49 14379
scalar SlicingScenario.node[6].appl meanDelay_SCH_41_49 31.766924181653
scalar SlicingScenario.node[6].appl meanJitter_SCH_41_49 0.041057098851
scalar SlicingScenario.node[6].appl meanRxPacketSize_SCH_41_49 1438
scalar SlicingScenario.node[6].appl meanTxPacketSize_SCH_41_49 0
scalar SlicingScenario.node[6].appl meanRxThroughput_SCH_41_49 252775.11757577
scalar SlicingScenario.node[6].appl meanTxThroughput_SCH_41_49 0
scalar SlicingScenario.node[6].appl rxTimeOfService_SCH_41_49 82.3685503529
scalar SlicingScenario.node[6].appl txTimeOfService_SCH_41_49 0
scalar SlicingScenario.node[6].nic.phy80211p busyTime 0.37251716129036
scalar SlicingScenario.node[6].nic.phy80211p ncollisions 0
scalar SlicingScenario.node[6].nic.phy80211p UnderSensitivityPackets 1283
scalar SlicingScenario.node[6].nic.mac1609_4 ReceivedUnicastPackets_CCH 0
scalar SlicingScenario.node[6].nic.mac1609_4 ReceivedBroadcasts_CCH 25
scalar SlicingScenario.node[6].nic.mac1609_4 SentPackets_CCH 0
scalar SlicingScenario.node[6].nic.mac1609_4 SentAcknowledgements_CCH 0
scalar SlicingScenario.node[6].nic.mac1609_4 SNIRLostPackets_CCH 0
scalar SlicingScenario.node[6].nic.mac1609_4 RXTXLostPackets_CCH 0
scalar SlicingScenario.node[6].nic.mac1609_4 TotalLostPackets_CCH 0
scalar SlicingScenario.node[6].nic.mac1609_4 DroppedPacketsInMac_CCH 0
scalar SlicingScenario.node[6].nic.mac1609_4 TooLittleTime_CCH 0
scalar SlicingScenario.node[6].nic.mac1609_4 TimesIntoBackoff_CCH 0
scalar SlicingScenario.node[6].nic.mac1609_4 SlotsBackoff_CCH 0
scalar SlicingScenario.node[6].nic.mac1609_4 NumInternalContention_CCH 0
scalar SlicingScenario.node[6].nic.mac1609_4 RemainingPacketsInEDCA_CCH 0
scalar SlicingScenario.node[6].nic.mac1609_4 totalBusyTime_CCH 0.098882372594
scalar SlicingScenario.node[6].nic.mac1609_4 ReceivedUnicastPackets_SCH 0
scalar SlicingScenario.node[6].nic.mac1609_4 ReceivedBroadcasts_SCH 17512
scalar SlicingScenario.node[6].nic.mac1609_4 SentPackets_SCH 0
scalar SlicingScenario.node[6].nic.mac1609_4 SentAcknowledgements_SCH 0
scalar SlicingScenario.node[6].nic.mac1609_4 SNIRLostPackets_SCH 0
scalar SlicingScenario.node[6].nic.mac1609_4 RXTXLostPackets_SCH 0
scalar SlicingScenario.node[6].nic.mac1609_4 TotalLostPackets_SCH 0
scalar SlicingScenario.node[6].nic.mac1609_4 DroppedPacketsInMac_SCH 0
scalar SlicingScenario.node[6].nic.mac1609_4 TooLittleTime_SCH 0
scalar SlicingScenario.node[6].nic.mac1609_4 TimesIntoBackoff_SCH 0
scalar SlicingScenario.node[6].nic.mac1609_4 SlotsBackoff_SCH 0
scalar SlicingScenario.node[6].nic.mac1609_4 NumInternalContention_SCH 0
scalar SlicingScenario.node[6].nic.mac1609_4 RemainingPacketsInEDCA_SCH 0
scalar SlicingScenario.node[6].nic.mac1609_4 totalBusyTime_SCH 34.59312
scalar SlicingScenario.node[6].veinsmobility startTime 2
scalar SlicingScenario.node[6].veinsmobility totalTime 92
scalar SlicingScenario.node[6].veinsmobility stopTime 95
scalar SlicingScenario.node[6].veinsmobility minSpeed 8.2755763351317
scalar SlicingScenario.node[6].veinsmobility maxSpeed 11.105984727866
scalar SlicingScenario.node[6].veinsmobility totalDistance 978.62519311264
scalar SlicingScenario.node[6].veinsmobility totalCO2Emission 166.1551073388
scalar SlicingScenario.node[4].appl txPackets_CCH_37 0
scalar SlicingScenario.node[4].appl rxPackets_CCH_37 0
scalar SlicingScenario.node[4].appl rxNeighborPackets_CCH_37 0
scalar SlicingScenario.node[4].appl meanDelay_CCH_37 0
scalar SlicingScenario.node[4].appl meanJitter_CCH_37 0
scalar SlicingScenario.node[4].appl meanRxPacketSize_CCH_37 0
scalar SlicingScenario.node[4].appl meanTxPacketSize_CCH_37 0
scalar SlicingScenario.node[4].appl meanRxThroughput_CCH_37 0
scalar SlicingScenario.node[4].appl meanTxThroughput_CCH_37 0
scalar SlicingScenario.node[4].appl rxTimeOfService_CCH_37 0
scalar SlicingScenario.node[4].appl txTimeOfService_CCH_37 0
scalar SlicingScenario.node[4].appl txPackets_SCH_40_37 0
scalar SlicingScenario.node[4].appl rxPackets_SCH_40_37 254
scalar SlicingScenario.node[4].appl rxNeighborPackets_SCH_40_37 1095
scalar SlicingScenario.node[4].appl meanDelay_SCH_40_37 32.078370687375
scalar SlicingScenario.node[4].appl meanJitter_SCH_40_37 0.292348826637
scalar SlicingScenario.node[4].appl meanRxPacketSize_SCH_40_37 1510
scalar SlicingScenario.node[4].appl meanTxPacketSize_SCH_40_37 0
scalar SlicingScenario.node[4].appl meanRxThroughput_SCH_40_37 37609.916313494
scalar SlicingScenario.node[4].appl meanTxThroughput_SCH_40_37 0
scalar SlicingScenario.node[4].appl rxTimeOfService_SCH_40_37 81.582739361192
scalar SlicingScenario.node[4].appl txTimeOfService_SCH_40_37 0
scalar SlicingScenario.node[4].nic.phy80211p busyTime 0.37251716129036
scalar SlicingScenario.node[4].nic.phy80211p ncollisions 0
scalar SlicingScenario.node[4].nic.phy80211p UnderSensitivityPackets 1283
scalar SlicingScenario.node[4].nic.mac1609_4 ReceivedUnicastPackets_CCH 0
scalar SlicingScenario.node[4].nic.mac1609_4 ReceivedBroadcasts_CCH 79
scalar SlicingScenario.node[4].nic.mac1609_4 SentPackets_CCH 0
scalar SlicingScenario.node[4].nic.mac1609_4 SentAcknowledgements_CCH 0
scalar SlicingScenario.node[4].nic.mac1609_4 SNIRLostPackets_CCH 0
scalar SlicingScenario.node[4].nic.mac1609_4 RXTXLostPackets_CCH 0
scalar SlicingScenario.node[4].nic.mac1609_4 TotalLostPackets_CCH 0
scalar SlicingScenario.node[4].nic.mac1609_4 DroppedPacketsInMac_CCH 0
scalar SlicingScenario.node[4].nic.mac1609_4 TooLittleTime_CCH 0
scalar SlicingScenario.node[4].nic.mac1609_4 TimesIntoBackoff_CCH 0
scalar SlicingScenario.node[4].nic.mac1609_4 SlotsBackoff_CCH 0
scalar SlicingScenario.node[4].nic.mac1609_4 NumInternalContention_CCH 0
scalar SlicingScenario.node[4].nic.mac1609_4 RemainingPacketsInEDCA_CCH 0
scalar SlicingScenario.node[4].nic.mac1609_4 totalBusyTime_CCH 0.302856040319
scalar SlicingScenario.node[4].nic.mac1609_4 ReceivedUnicastPackets_SCH 0
scalar SlicingScenario.node[4].nic.mac1609_4 ReceivedBroadcasts_SCH 17458
scalar SlicingScenario.node[4].nic.mac1609_4 SentPackets_SCH 0
scalar SlicingScenario.node[4].nic.mac1609_4 SentAcknowledgements_SCH 0
scalar SlicingScenario.node[4].nic.mac1609_4 SNIRLostPackets_SCH 0
scalar SlicingScenario.node[4].nic.mac1609_4 RXTXLostPackets_SCH 0
scalar SlicingScenario.node[4].nic.mac1609_4 TotalLostPackets_SCH 0
scalar SlicingScenario.node[4].nic.mac1609_4 DroppedPacketsInMac_SCH 0
scalar SlicingScenario.node[4].nic.mac1609_4 TooLittleTime_SCH 0
scalar SlicingScenario.node[4].nic.mac1609_4 TimesIntoBackoff_SCH 0
scalar SlicingScenario.node[4].nic.mac1609_4 SlotsBackoff_SCH 0
scalar SlicingScenario.node[4].nic.mac1609_4 NumInternalContention_SCH 0
scalar SlicingScenario.node[4].nic.mac1609_4 RemainingPacketsInEDCA_SCH 0
scalar SlicingScenario.node[4].nic.mac1609_4 totalBusyTime_SCH 34.4904
scalar SlicingScenario.node[4].veinsmobility startTime 2
scalar SlicingScenario.node[4].veinsmobility totalTime 92
scalar SlicingScenario.node[4].veinsmobility stopTime 95
scalar SlicingScenario.node[4].veinsmobility minSpeed 8.3073596067126
scalar SlicingScenario.node[4].veinsmobility maxSpeed 11.085640425924
scalar SlicingScenario.node[4].veinsmobility totalDistance 980.67096342427
scalar SlicingScenario.node[4].veinsmobility totalCO2Emission 165.57160917739
scalar SlicingScenario.node[7].appl txPackets_CCH_55 0
scalar SlicingScenario.node[7].appl rxPackets_CCH_55 0
scalar SlicingScenario.node[7].appl rxNeighborPackets_CCH_55 0
scalar SlicingScenario.node[7].appl meanDelay_CCH_55 0
scalar SlicingScenario.node[7].appl meanJitter_CCH_55 0
scalar SlicingScenario.node[7].appl meanRxPacketSize_CCH_55 0
scalar SlicingScenario.node[7].appl meanTxPacketSize_CCH_55 0
scalar SlicingScenario.node[7].appl meanRxThroughput_CCH_55 0
scalar SlicingScenario.node[7].appl meanTxThroughput_CCH_55 0
scalar SlicingScenario.node[7].appl rxTimeOfService_CCH_55 0
scalar SlicingScenario.node[7].appl txTimeOfService_CCH_55 0
scalar SlicingScenario.node[7].appl txPackets_SCH_40_55 0
scalar SlicingScenario.node[7].appl rxPackets_SCH_40_55 267
scalar SlicingScenario.node[7].appl rxNeighborPackets_SCH_40_55 1082
scalar SlicingScenario.node[7].appl meanDelay_SCH_40_55 30.859802571895
scalar SlicingScenario.node[7].appl meanJitter_SCH_40_55 0.279114874698
scalar SlicingScenario.node[7].appl meanRxPacketSize_SCH_40_55 1510
scalar SlicingScenario.node[7].appl meanTxPacketSize_SCH_40_55 0
scalar SlicingScenario.node[7].appl meanRxThroughput_SCH_40_55 38711.095682708
scalar SlicingScenario.node[7].appl meanTxThroughput_SCH_40_55 0
scalar SlicingScenario.node[7].appl rxTimeOfService_SCH_40_55 83.318747328579
scalar SlicingScenario.node[7].appl txTimeOfService_SCH_40_55 0
scalar SlicingScenario.node[7].nic.phy80211p busyTime 0.37251716129036
scalar SlicingScenario.node[7].nic.phy80211p ncollisions 0
scalar SlicingScenario.node[7].nic.phy80211p UnderSensitivityPackets 1283
scalar SlicingScenario.node[7].nic.mac1609_4 ReceivedUnicastPackets_CCH 0
scalar SlicingScenario.node[7].nic.mac1609_4 ReceivedBroadcasts_CCH 25
scalar SlicingScenario.node[7].nic.mac1609_4 SentPackets_CCH 0
scalar SlicingScenario.node[7].nic.mac1609_4 SentAcknowledgements_CCH 0
scalar SlicingScenario.node[7].nic.mac1609_4 SNIRLostPackets_CCH 0
scalar SlicingScenario.node[7].nic.mac1609_4 RXTXLostPackets_CCH 0
scalar SlicingScenario.node[7].nic.mac1609_4 TotalLostPackets_CCH 0
scalar SlicingScenario.node[7].nic.mac1609_4 DroppedPacketsInMac_CCH 0
scalar SlicingScenario.node[7].nic.mac1609_4 TooLittleTime_CCH 0
scalar SlicingScenario.node[7].nic.mac1609_4 TimesIntoBackoff_CCH 0
scalar SlicingScenario.node[7].nic.mac1609_4 SlotsBackoff_CCH 0
scalar SlicingScenario.node[7].nic.mac1609_4 NumInternalContention_CCH 0
scalar SlicingScenario.node[7].nic.mac1609_4 RemainingPacketsInEDCA_CCH 0
scalar SlicingScenario.node[7].nic.mac1609_4 totalBusyTime_CCH 0.099027946938
scalar SlicingScenario.node[7].nic.mac1609_4 ReceivedUnicastPackets_SCH 0
scalar SlicingScenario.node[7].nic.mac1609_4 ReceivedBroadcasts_SCH 17512
scalar SlicingScenario.node[7].nic.mac1609_4 SentPackets_SCH 0
scalar SlicingScenario.node[7].nic.mac1609_4 SentAcknowledgements_SCH 0
scalar SlicingScenario.node[7].nic.mac1609_4 SNIRLostPackets_SCH 0
scalar SlicingScenario.node[7].nic.mac1609_4 RXTXLostPackets_SCH 0
scalar SlicingScenario.node[7].nic.mac1609_4 TotalLostPackets_SCH 0
scalar SlicingScenario.node[7].nic.mac1609_4 DroppedPacketsInMac_SCH 0
scalar SlicingScenario.node[7].nic.mac1609_4 TooLittleTime_SCH 0
scalar SlicingScenario.node[7].nic.mac1609_4 TimesIntoBackoff_SCH 0
scalar SlicingScenario.node[7].nic.mac1609_4 SlotsBackoff_SCH 0
scalar SlicingScenario.node[7].nic.mac1609_4 NumInternalContention_SCH 0
scalar SlicingScenario.node[7].nic.mac1609_4 RemainingPacketsInEDCA_SCH 0
scalar SlicingScenario.node[7].nic.mac1609_4 totalBusyTime_SCH 34.59312
scalar SlicingScenario.node[7].veinsmobility startTime 2
scalar SlicingScenario.node[7].veinsmobility totalTime 92
scalar SlicingScenario.node[7].veinsmobility stopTime 95
scalar SlicingScenario.node[7].veinsmobility minSpeed 8.0518606711277
scalar SlicingScenario.node[7].veinsmobility maxSpeed 11.109385513947
scalar SlicingScenario.node[7].veinsmobility totalDistance 981.46119321946
scalar SlicingScenario.node[7].veinsmobility totalCO2Emission 167.55795621272
scalar SlicingScenario.node[9].appl txPackets_CCH_67 0
scalar SlicingScenario.node[9].appl rxPackets_CCH_67 0
scalar SlicingScenario.node[9].appl rxNeighborPackets_CCH_67 0
scalar SlicingScenario.node[9].appl meanDelay_CCH_67 0
scalar SlicingScenario.node[9].appl meanJitter_CCH_67 0
scalar SlicingScenario.node[9].appl meanRxPacketSize_CCH_67 0
scalar SlicingScenario.node[9].appl meanTxPacketSize_CCH_67 0
scalar SlicingScenario.node[9].appl meanRxThroughput_CCH_67 0
scalar SlicingScenario.node[9].appl meanTxThroughput_CCH_67 0
scalar SlicingScenario.node[9].appl rxTimeOfService_CCH_67 0
scalar SlicingScenario.node[9].appl txTimeOfService_CCH_67 0
scalar SlicingScenario.node[9].appl txPackets_SCH_41_67 0
scalar SlicingScenario.node[9].appl rxPackets_SCH_41_67 1484
scalar SlicingScenario.node[9].appl rxNeighborPackets_SCH_41_67 15096
scalar SlicingScenario.node[9].appl meanDelay_SCH_41_67 38.684968174131
scalar SlicingScenario.node[9].appl meanJitter_SCH_41_67 0.051219644606
scalar SlicingScenario.node[9].appl meanRxPacketSize_SCH_41_67 1438
scalar SlicingScenario.node[9].appl meanTxPacketSize_SCH_41_67 0
scalar SlicingScenario.node[9].appl meanRxThroughput_SCH_41_67 223318.47510272
scalar SlicingScenario.node[9].appl meanTxThroughput_SCH_41_67 0
scalar SlicingScenario.node[9].appl rxTimeOfService_SCH_41_67 76.476968563144
scalar SlicingScenario.node[9].appl txTimeOfService_SCH_41_67 0
scalar SlicingScenario.node[9].nic.phy80211p busyTime 0.37741225531917
scalar SlicingScenario.node[9].nic.phy80211p ncollisions 0
scalar SlicingScenario.node[9].nic.phy80211p UnderSensitivityPackets 1290
scalar SlicingScenario.node[9].nic.mac1609_4 ReceivedUnicastPackets_CCH 0
scalar SlicingScenario.node[9].nic.mac1609_4 ReceivedBroadcasts_CCH 0
scalar SlicingScenario.node[9].nic.mac1609_4 SentPackets_CCH 0
scalar SlicingScenario.node[9].nic.mac1609_4 SentAcknowledgements_CCH 0
scalar SlicingScenario.node[9].nic.mac1609_4 SNIRLostPackets_CCH 0
scalar SlicingScenario.node[9].nic.mac1609_4 RXTXLostPackets_CCH 0
scalar SlicingScenario.node[9].nic.mac1609_4 TotalLostPackets_CCH 0
scalar SlicingScenario.node[9].nic.mac1609_4 DroppedPacketsInMac_CCH 0
scalar SlicingScenario.node[9].nic.mac1609_4 TooLittleTime_CCH 0
scalar SlicingScenario.node[9].nic.mac1609_4 TimesIntoBackoff_CCH 0
scalar SlicingScenario.node[9].nic.mac1609_4 SlotsBackoff_CCH 0
scalar SlicingScenario.node[9].nic.mac1609_4 NumInternalContention_CCH 0
scalar SlicingScenario.node[9].nic.mac1609_4 RemainingPacketsInEDCA_CCH 0
scalar SlicingScenario.node[9].nic.mac1609_4 totalBusyTime_CCH 0
scalar SlicingScenario.node[9].nic.mac1609_4 ReceivedUnicastPackets_SCH 0
scalar SlicingScenario.node[9].nic.mac1609_4 ReceivedBroadcasts_SCH 17959
scalar SlicingScenario.node[9].nic.mac1609_4 SentPackets_SCH 0
scalar SlicingScenario.node[9].nic.mac1609_4 SentAcknowledgements_SCH 0
scalar SlicingScenario.node[9].nic.mac1609_4 SNIRLostPackets_SCH 0
scalar SlicingScenario.node[9].nic.mac1609_4 RXTXLostPackets_SCH 0
scalar SlicingScenario.node[9].nic.mac1609_4 TotalLostPackets_SCH 0
scalar SlicingScenario.node[9].nic.mac1609_4 DroppedPacketsInMac_SCH 0
scalar SlicingScenario.node[9].nic.mac1609_4 TooLittleTime_SCH 0
scalar SlicingScenario.node[9].nic.mac1609_4 TimesIntoBackoff_SCH 0
scalar SlicingScenario.node[9].nic.mac1609_4 SlotsBackoff_SCH 0
scalar SlicingScenario.node[9].nic.mac1609_4 NumInternalContention_SCH 0
scalar SlicingScenario.node[9].nic.mac1609_4 RemainingPacketsInEDCA_SCH 0
scalar SlicingScenario.node[9].nic.mac1609_4 totalBusyTime_SCH 35.476752
scalar SlicingScenario.node[9].veinsmobility startTime 3
scalar SlicingScenario.node[9].veinsmobility totalTime 93
scalar SlicingScenario.node[9].veinsmobility stopTime 97
scalar SlicingScenario.node[9].veinsmobility minSpeed 5.1861282305429
scalar SlicingScenario.node[9].veinsmobility maxSpeed 11.108923374107
scalar SlicingScenario.node[9].veinsmobility totalDistance 979.30177210421
scalar SlicingScenario.node[9].veinsmobility totalCO2Emission 172.58336443215
scalar SlicingScenario.node[8].appl txPackets_CCH_61 0
scalar SlicingScenario.node[8].appl rxPackets_CCH_61 0
scalar SlicingScenario.node[8].appl rxNeighborPackets_CCH_61 0
scalar SlicingScenario.node[8].appl meanDelay_CCH_61 0
scalar SlicingScenario.node[8].appl meanJitter_CCH_61 0
scalar SlicingScenario.node[8].appl meanRxPacketSize_CCH_61 0
scalar SlicingScenario.node[8].appl meanTxPacketSize_CCH_61 0
scalar SlicingScenario.node[8].appl meanRxThroughput_CCH_61 0
scalar SlicingScenario.node[8].appl meanTxThroughput_CCH_61 0
scalar SlicingScenario.node[8].appl rxTimeOfService_CCH_61 0
scalar SlicingScenario.node[8].appl txTimeOfService_CCH_61 0
scalar SlicingScenario.node[8].appl txPackets_SCH_41_61 0
scalar SlicingScenario.node[8].appl rxPackets_SCH_41_61 1537
scalar SlicingScenario.node[8].appl rxNeighborPackets_SCH_41_61 15246
scalar SlicingScenario.node[8].appl meanDelay_SCH_41_61 38.390809276161
scalar SlicingScenario.node[8].appl meanJitter_SCH_41_61 0.050163116404
scalar SlicingScenario.node[8].appl meanRxPacketSize_SCH_41_61 1438
scalar SlicingScenario.node[8].appl meanTxPacketSize_SCH_41_61 0
scalar SlicingScenario.node[8].appl meanRxThroughput_SCH_41_61 225100.74124309
scalar SlicingScenario.node[8].appl meanTxThroughput_SCH_41_61 0
scalar SlicingScenario.node[8].appl rxTimeOfService_SCH_41_61 78.591300509736
scalar SlicingScenario.node[8].appl txTimeOfService_SCH_41_61 0
scalar SlicingScenario.node[8].nic.phy80211p busyTime 0.37796362105265
scalar SlicingScenario.node[8].nic.phy80211p ncollisions 0
scalar SlicingScenario.node[8].nic.phy80211p UnderSensitivityPackets 1287
scalar SlicingScenario.node[8].nic.mac1609_4 ReceivedUnicastPackets_CCH 0
scalar SlicingScenario.node[8].nic.mac1609_4 ReceivedBroadcasts_CCH 0
scalar SlicingScenario.node[8].nic.mac1609_4 SentPackets_CCH 0
scalar SlicingScenario.node[8].nic.mac1609_4 SentAcknowledgements_CCH 0
scalar SlicingScenario.node[8].nic.mac1609_4 SNIRLostPackets_CCH 0
scalar SlicingScenario.node[8].nic.mac1609_4 RXTXLostPackets_CCH 0
scalar SlicingScenario.node[8].nic.mac1609_4 TotalLostPackets_CCH 0
scalar SlicingScenario.node[8].nic.mac1609_4 DroppedPacketsInMac_CCH 0
scalar SlicingScenario.node[8].nic.mac1609_4 TooLittleTime_CCH 0
scalar SlicingScenario.node[8].nic.mac1609_4 TimesIntoBackoff_CCH 0
scalar SlicingScenario.node[8].nic.mac1609_4 SlotsBackoff_CCH 0
scalar SlicingScenario.node[8].nic.mac1609_4 NumInternalContention_CCH 0
scalar SlicingScenario.node[8].nic.mac1609_4 RemainingPacketsInEDCA_CCH 0
scalar SlicingScenario.node[8].nic.mac1609_4 totalBusyTime_CCH 0
scalar SlicingScenario.node[8].nic.mac1609_4 ReceivedUnicastPackets_SCH 0
scalar SlicingScenario.node[8].nic.mac1609_4 ReceivedBroadcasts_SCH 18177
scalar SlicingScenario.node[8].nic.mac1609_4 SentPackets_SCH 0
scalar SlicingScenario.node[8].nic.mac1609_4 SentAcknowledgements_SCH 0
scalar SlicingScenario.node[8].nic.mac1609_4 SNIRLostPackets_SCH 0
scalar SlicingScenario.node[8].nic.mac1609_4 RXTXLostPackets_SCH 0
scalar SlicingScenario.node[8].nic.mac1609_4 TotalLostPackets_SCH 0
scalar SlicingScenario.node[8].nic.mac1609_4 DroppedPacketsInMac_SCH 0
scalar SlicingScenario.node[8].nic.mac1609_4 TooLittleTime_SCH 0
scalar SlicingScenario.node[8].nic.mac1609_4 TimesIntoBackoff_SCH 0
scalar SlicingScenario.node[8].nic.mac1609_4 SlotsBackoff_SCH 0
scalar SlicingScenario.node[8].nic.mac1609_4 NumInternalContention_SCH 0
scalar SlicingScenario.node[8].nic.mac1609_4 RemainingPacketsInEDCA_SCH 0
scalar SlicingScenario.node[8].nic.mac1609_4 totalBusyTime_SCH 35.906544
scalar SlicingScenario.node[8].veinsmobility startTime 3
scalar SlicingScenario.node[8].veinsmobility totalTime 94
scalar SlicingScenario.node[8].veinsmobility stopTime 98
scalar SlicingScenario.node[8].veinsmobility minSpeed 4.9479432440815
scalar SlicingScenario.node[8].veinsmobility maxSpeed 11.108117717798
scalar SlicingScenario.node[8].veinsmobility totalDistance 982.47143783386
scalar SlicingScenario.node[8].veinsmobility totalCO2Emission 173.49407919767
scalar SlicingScenario.node[10].appl txPackets_CCH_73 0
scalar SlicingScenario.node[10].appl rxPackets_CCH_73 0
scalar SlicingScenario.node[10].appl rxNeighborPackets_CCH_73 0
scalar SlicingScenario.node[10].appl meanDelay_CCH_73 0
scalar SlicingScenario.node[10].appl meanJitter_CCH_73 0
scalar SlicingScenario.node[10].appl meanRxPacketSize_CCH_73 0
scalar SlicingScenario.node[10].appl meanTxPacketSize_CCH_73 0
scalar SlicingScenario.node[10].appl meanRxThroughput_CCH_73 0
scalar SlicingScenario.node[10].appl meanTxThroughput_CCH_73 0
scalar SlicingScenario.node[10].appl rxTimeOfService_CCH_73 0
scalar SlicingScenario.node[10].appl txTimeOfService_CCH_73 0
scalar SlicingScenario.node[10].appl txPackets_SCH_41_73 0
scalar SlicingScenario.node[10].appl rxPackets_SCH_41_73 1477
scalar SlicingScenario.node[10].appl rxNeighborPackets_SCH_41_73 14909
scalar SlicingScenario.node[10].appl meanDelay_SCH_41_73 38.958925701924
scalar SlicingScenario.node[10].appl meanJitter_SCH_41_73 0.052146456686
scalar SlicingScenario.node[10].appl meanRxPacketSize_SCH_41_73 1438
scalar SlicingScenario.node[10].appl meanTxPacketSize_SCH_41_73 0
scalar SlicingScenario.node[10].appl meanRxThroughput_SCH_41_73 217392.42885592
scalar SlicingScenario.node[10].appl meanTxThroughput_SCH_41_73 0
scalar SlicingScenario.node[10].appl rxTimeOfService_SCH_41_73 78.191131537823
scalar SlicingScenario.node[10].appl txTimeOfService_SCH_41_73 0
scalar SlicingScenario.node[10].nic.phy80211p busyTime 0.36902450526319
scalar SlicingScenario.node[10].nic.phy80211p ncollisions 0
scalar SlicingScenario.node[10].nic.phy80211p UnderSensitivityPackets 1717
scalar SlicingScenario.node[10].nic.mac1609_4 ReceivedUnicastPackets_CCH 0
scalar SlicingScenario.node[10].nic.mac1609_4 ReceivedBroadcasts_CCH 109
scalar SlicingScenario.node[10].nic.mac1609_4 SentPackets_CCH 0
scalar SlicingScenario.node[10].nic.mac1609_4 SentAcknowledgements_CCH 0
scalar SlicingScenario.node[10].nic.mac1609_4 SNIRLostPackets_CCH 0
scalar SlicingScenario.node[10].nic.mac1609_4 RXTXLostPackets_CCH 0
scalar SlicingScenario.node[10].nic.mac1609_4 TotalLostPackets_CCH 0
scalar SlicingScenario.node[10].nic.mac1609_4 DroppedPacketsInMac_CCH 0
scalar SlicingScenario.node[10].nic.mac1609_4 TooLittleTime_CCH 0
scalar SlicingScenario.node[10].nic.mac1609_4 TimesIntoBackoff_CCH 0
scalar SlicingScenario.node[10].nic.mac1609_4 SlotsBackoff_CCH 0
scalar SlicingScenario.node[10].nic.mac1609_4 NumInternalContention_CCH 0
scalar SlicingScenario.node[10].nic.mac1609_4 RemainingPacketsInEDCA_CCH 0
scalar SlicingScenario.node[10].nic.mac1609_4 totalBusyTime_CCH 0.422245837855
scalar SlicingScenario.node[10].nic.mac1609_4 ReceivedUnicastPackets_SCH 0
scalar SlicingScenario.node[10].nic.mac1609_4 ReceivedBroadcasts_SCH 17638
scalar SlicingScenario.node[10].nic.mac1609_4 SentPackets_SCH 0
scalar SlicingScenario.node[10].nic.mac1609_4 SentAcknowledgements_SCH 0
scalar SlicingScenario.node[10].nic.mac1609_4 SNIRLostPackets_SCH 0
scalar SlicingScenario.node[10].nic.mac1609_4 RXTXLostPackets_SCH 0
scalar SlicingScenario.node[10].nic.mac1609_4 TotalLostPackets_SCH 0
scalar SlicingScenario.node[10].nic.mac1609_4 DroppedPacketsInMac_SCH 0
scalar SlicingScenario.node[10].nic.mac1609_4 TooLittleTime_SCH 0
scalar SlicingScenario.node[10].nic.mac1609_4 TimesIntoBackoff_SCH 0
scalar SlicingScenario.node[10].nic.mac1609_4 SlotsBackoff_SCH 0
scalar SlicingScenario.node[10].nic.mac1609_4 NumInternalContention_SCH 0
scalar SlicingScenario.node[10].nic.mac1609_4 RemainingPacketsInEDCA_SCH 0
scalar SlicingScenario.node[10].nic.mac1609_4 totalBusyTime_SCH 34.84512
scalar SlicingScenario.node[10].veinsmobility startTime 3
scalar SlicingScenario.node[10].veinsmobility totalTime 94
scalar SlicingScenario.node[10].veinsmobility stopTime 98
scalar SlicingScenario.node[10].veinsmobility minSpeed 5.0542412482421
scalar SlicingScenario.node[10].veinsmobility maxSpeed 11.10833227857
scalar SlicingScenario.node[10].veinsmobility totalDistance 985.98402677551
scalar SlicingScenario.node[10].veinsmobility totalCO2Emission 173.81188447589
scalar SlicingScenario.node[11].appl txPackets_CCH_79 0
scalar SlicingScenario.node[11].appl rxPackets_CCH_79 0
scalar SlicingScenario.node[11].appl rxNeighborPackets_CCH_79 0
scalar SlicingScenario.node[11].appl meanDelay_CCH_79 0
scalar SlicingScenario.node[11].appl meanJitter_CCH_79 0
scalar SlicingScenario.node[11].appl meanRxPacketSize_CCH_79 0
scalar SlicingScenario.node[11].appl meanTxPacketSize_CCH_79 0
scalar SlicingScenario.node[11].appl meanRxThroughput_CCH_79 0
scalar SlicingScenario.node[11].appl meanTxThroughput_CCH_79 0
scalar SlicingScenario.node[11].appl rxTimeOfService_CCH_79 0
scalar SlicingScenario.node[11].appl txTimeOfService_CCH_79 0
scalar SlicingScenario.node[11].appl txPackets_SCH_40_79 0
scalar SlicingScenario.node[11].appl rxPackets_SCH_40_79 216
scalar SlicingScenario.node[11].appl rxNeighborPackets_SCH_40_79 1178
scalar SlicingScenario.node[11].appl meanDelay_SCH_40_79 38.657452557462
scalar SlicingScenario.node[11].appl meanJitter_SCH_40_79 0.357101886886
scalar SlicingScenario.node[11].appl meanRxPacketSize_SCH_40_79 1510
scalar SlicingScenario.node[11].appl meanTxPacketSize_SCH_40_79 0
scalar SlicingScenario.node[11].appl meanRxThroughput_SCH_40_79 33543.611894472
scalar SlicingScenario.node[11].appl meanTxThroughput_SCH_40_79 0
scalar SlicingScenario.node[11].appl rxTimeOfService_SCH_40_79 77.787687509884
scalar SlicingScenario.node[11].appl txTimeOfService_SCH_40_79 0
scalar SlicingScenario.node[11].nic.phy80211p busyTime 0.37796362105265
scalar SlicingScenario.node[11].nic.phy80211p ncollisions 0
scalar SlicingScenario.node[11].nic.phy80211p UnderSensitivityPackets 1287
scalar SlicingScenario.node[11].nic.mac1609_4 ReceivedUnicastPackets_CCH 0
scalar SlicingScenario.node[11].nic.mac1609_4 ReceivedBroadcasts_CCH 0
scalar SlicingScenario.node[11].nic.mac1609_4 SentPackets_CCH 0
scalar SlicingScenario.node[11].nic.mac1609_4 SentAcknowledgements_CCH 0
scalar SlicingScenario.node[11].nic.mac1609_4 SNIRLostPackets_CCH 0
scalar SlicingScenario.node[11].nic.mac1609_4 RXTXLostPackets_CCH 0
scalar SlicingScenario.node[11].nic.mac1609_4 TotalLostPackets_CCH 0
scalar SlicingScenario.node[11].nic.mac1609_4 DroppedPacketsInMac_CCH 0
scalar SlicingScenario.node[11].nic.mac1609_4 TooLittleTime_CCH 0
scalar SlicingScenario.node[11].nic.mac1609_4 TimesIntoBackoff_CCH 0
scalar SlicingScenario.node[11].nic.mac1609_4 SlotsBackoff_CCH 0
scalar SlicingScenario.node[11].nic.mac1609_4 NumInternalContention_CCH 0
scalar SlicingScenario.node[11].nic.mac1609_4 RemainingPacketsInEDCA_CCH 0
scalar SlicingScenario.node[11].nic.mac1609_4 totalBusyTime_CCH 0
scalar SlicingScenario.node[11].nic.mac1609_4 ReceivedUnicastPackets_SCH 0
scalar SlicingScenario.node[11].nic.mac1609_4 ReceivedBroadcasts_SCH 18177
scalar SlicingScenario.node[11].nic.mac1609_4 SentPackets_SCH 0
scalar SlicingScenario.node[11].nic.mac1609_4 SentAcknowledgements_SCH 0
scalar SlicingScenario.node[11].nic.mac1609_4 SNIRLostPackets_SCH 0
scalar SlicingScenario.node[11].nic.mac1609_4 RXTXLostPackets_SCH 0
scalar SlicingScenario.node[11].nic.mac1609_4 TotalLostPackets_SCH 0
scalar SlicingScenario.node[11].nic.mac1609_4 DroppedPacketsInMac_SCH 0
scalar SlicingScenario.node[11].nic.mac1609_4 TooLittleTime_SCH 0
scalar SlicingScenario.node[11].nic.mac1609_4 TimesIntoBackoff_SCH 0
scalar SlicingScenario.node[11].nic.mac1609_4 SlotsBackoff_SCH 0
scalar SlicingScenario.node[11].nic.mac1609_4 NumInternalContention_SCH 0
scalar SlicingScenario.node[11].nic.mac1609_4 RemainingPacketsInEDCA_SCH 0
scalar SlicingScenario.node[11].nic.mac1609_4 totalBusyTime_SCH 35.906544
scalar SlicingScenario.node[11].veinsmobility startTime 3
scalar SlicingScenario.node[11].veinsmobility totalTime 94
scalar SlicingScenario.node[11].veinsmobility stopTime 98
scalar SlicingScenario.node[11].veinsmobility minSpeed 4.7448458242682
scalar SlicingScenario.node[11].veinsmobility maxSpeed 11.104870087132
scalar SlicingScenario.node[11].veinsmobility totalDistance 981.58526869548
scalar SlicingScenario.node[11].veinsmobility totalCO2Emission 175.28543727069
scalar SlicingScenario.node[15].appl txPackets_CCH_103 0
scalar SlicingScenario.node[15].appl rxPackets_CCH_103 0
scalar SlicingScenario.node[15].appl rxNeighborPackets_CCH_103 0
scalar SlicingScenario.node[15].appl meanDelay_CCH_103 0
scalar SlicingScenario.node[15].appl meanJitter_CCH_103 0
scalar SlicingScenario.node[15].appl meanRxPacketSize_CCH_103 0
scalar SlicingScenario.node[15].appl meanTxPacketSize_CCH_103 0
scalar SlicingScenario.node[15].appl meanRxThroughput_CCH_103 0
scalar SlicingScenario.node[15].appl meanTxThroughput_CCH_103 0
scalar SlicingScenario.node[15].appl rxTimeOfService_CCH_103 0
scalar SlicingScenario.node[15].appl txTimeOfService_CCH_103 0
scalar SlicingScenario.node[15].appl txPackets_SCH_41_103 0
scalar SlicingScenario.node[15].appl rxPackets_SCH_41_103 826
scalar SlicingScenario.node[15].appl rxNeighborPackets_SCH_41_103 16156
scalar SlicingScenario.node[15].appl meanDelay_SCH_41_103 54.774046204238
scalar SlicingScenario.node[15].appl meanJitter_SCH_41_103 0.094184703871
scalar SlicingScenario.node[15].appl meanRxPacketSize_SCH_41_103 1438
scalar SlicingScenario.node[15].appl meanTxPacketSize_SCH_41_103 0
scalar SlicingScenario.node[15].appl meanRxThroughput_SCH_41_103 192357.00565934
scalar SlicingScenario.node[15].appl meanTxThroughput_SCH_41_103 0
scalar SlicingScenario.node[15].appl rxTimeOfService_SCH_41_103 49.41894352855
scalar SlicingScenario.node[15].appl txTimeOfService_SCH_41_103 0
scalar SlicingScenario.node[15].nic.phy80211p busyTime 0.38652714893619
scalar SlicingScenario.node[15].nic.phy80211p ncollisions 0
scalar SlicingScenario.node[15].nic.phy80211p UnderSensitivityPackets 1287
scalar SlicingScenario.node[15].nic.mac1609_4 ReceivedUnicastPackets_CCH 0
scalar SlicingScenario.node[15].nic.mac1609_4 ReceivedBroadcasts_CCH 55
scalar SlicingScenario.node[15].nic.mac1609_4 SentPackets_CCH 0
scalar SlicingScenario.node[15].nic.mac1609_4 SentAcknowledgements_CCH 0
scalar SlicingScenario.node[15].nic.mac1609_4 SNIRLostPackets_CCH 0
scalar SlicingScenario.node[15].nic.mac1609_4 RXTXLostPackets_CCH 0
scalar SlicingScenario.node[15].nic.mac1609_4 TotalLostPackets_CCH 0
scalar SlicingScenario.node[15].nic.mac1609_4 DroppedPacketsInMac_CCH 0
scalar SlicingScenario.node[15].nic.mac1609_4 TooLittleTime_CCH 0
scalar SlicingScenario.node[15].nic.mac1609_4 TimesIntoBackoff_CCH 0
scalar SlicingScenario.node[15].nic.mac1609_4 SlotsBackoff_CCH 0
scalar SlicingScenario.node[15].nic.mac1609_4 NumInternalContention_CCH 0
scalar SlicingScenario.node[15].nic.mac1609_4 RemainingPacketsInEDCA_CCH 0
scalar SlicingScenario.node[15].nic.mac1609_4 totalBusyTime_CCH 0.212611256967
scalar SlicingScenario.node[15].nic.mac1609_4 ReceivedUnicastPackets_SCH 0
scalar SlicingScenario.node[15].nic.mac1609_4 ReceivedBroadcasts_SCH 18338
scalar SlicingScenario.node[15].nic.mac1609_4 SentPackets_SCH 0
scalar SlicingScenario.node[15].nic.mac1609_4 SentAcknowledgements_SCH 0
scalar SlicingScenario.node[15].nic.mac1609_4 SNIRLostPackets_SCH 0
scalar SlicingScenario.node[15].nic.mac1609_4 RXTXLostPackets_SCH 0
scalar SlicingScenario.node[15].nic.mac1609_4 TotalLostPackets_SCH 0
scalar SlicingScenario.node[15].nic.mac1609_4 DroppedPacketsInMac_SCH 0
scalar SlicingScenario.node[15].nic.mac1609_4 TooLittleTime_SCH 0
scalar SlicingScenario.node[15].nic.mac1609_4 TimesIntoBackoff_SCH 0
scalar SlicingScenario.node[15].nic.mac1609_4 SlotsBackoff_SCH 0
scalar SlicingScenario.node[15].nic.mac1609_4 NumInternalContention_SCH 0
scalar SlicingScenario.node[15].nic.mac1609_4 RemainingPacketsInEDCA_SCH 0
scalar SlicingScenario.node[15].nic.mac1609_4 totalBusyTime_SCH 36.226752
scalar SlicingScenario.node[15].veinsmobility startTime 5
scalar SlicingScenario.node[15].veinsmobility totalTime 93
scalar SlicingScenario.node[15].veinsmobility stopTime 99
scalar SlicingScenario.node[15].veinsmobility minSpeed 5.3733956342139
scalar SlicingScenario.node[15].veinsmobility maxSpeed 11.108458791641
scalar SlicingScenario.node[15].veinsmobility totalDistance 979.20442134902
scalar SlicingScenario.node[15].veinsmobility totalCO2Emission 171.8256935014
scalar SlicingScenario.node[13].appl txPackets_CCH_91 0
scalar SlicingScenario.node[13].appl rxPackets_CCH_91 0
scalar SlicingScenario.node[13].appl rxNeighborPackets_CCH_91 0
scalar SlicingScenario.node[13].appl meanDelay_CCH_91 0
scalar SlicingScenario.node[13].appl meanJitter_CCH_91 0
scalar SlicingScenario.node[13].appl meanRxPacketSize_CCH_91 0
scalar SlicingScenario.node[13].appl meanTxPacketSize_CCH_91 0
scalar SlicingScenario.node[13].appl meanRxThroughput_CCH_91 0
scalar SlicingScenario.node[13].appl meanTxThroughput_CCH_91 0
scalar SlicingScenario.node[13].appl rxTimeOfService_CCH_91 0
scalar SlicingScenario.node[13].appl txTimeOfService_CCH_91 0
scalar SlicingScenario.node[13].appl txPackets_SCH_41_91 0
scalar SlicingScenario.node[13].appl rxPackets_SCH_41_91 952
scalar SlicingScenario.node[13].appl rxNeighborPackets_SCH_41_91 16232
scalar SlicingScenario.node[13].appl meanDelay_SCH_41_91 52.571962494793
scalar SlicingScenario.node[13].appl meanJitter_SCH_41_91 0.08296586881
scalar SlicingScenario.node[13].appl meanRxPacketSize_SCH_41_91 1438
scalar SlicingScenario.node[13].appl meanTxPacketSize_SCH_41_91 0
scalar SlicingScenario.node[13].appl meanRxThroughput_SCH_41_91 196699.68621573
scalar SlicingScenario.node[13].appl meanTxThroughput_SCH_41_91 0
scalar SlicingScenario.node[13].appl rxTimeOfService_SCH_41_91 55.699936338404
scalar SlicingScenario.node[13].appl txTimeOfService_SCH_41_91 0
scalar SlicingScenario.node[13].nic.phy80211p busyTime 0.38692446315791
scalar SlicingScenario.node[13].nic.phy80211p ncollisions 0
scalar SlicingScenario.node[13].nic.phy80211p UnderSensitivityPackets 1287
scalar SlicingScenario.node[13].nic.mac1609_4 ReceivedUnicastPackets_CCH 0
scalar SlicingScenario.node[13].nic.mac1609_4 ReceivedBroadcasts_CCH 0
scalar SlicingScenario.node[13].nic.mac1609_4 SentPackets_CCH 0
scalar SlicingScenario.node[13].nic.mac1609_4 SentAcknowledgements_CCH 0
scalar SlicingScenario.node[13].nic.mac1609_4 SNIRLostPackets_CCH 0
scalar SlicingScenario.node[13].nic.mac1609_4 RXTXLostPackets_CCH 0
scalar SlicingScenario.node[13].nic.mac1609_4 TotalLostPackets_CCH 0
scalar SlicingScenario.node[13].nic.mac1609_4 DroppedPacketsInMac_CCH 0
scalar SlicingScenario.node[13].nic.mac1609_4 TooLittleTime_CCH 0
scalar SlicingScenario.node[13].nic.mac1609_4 TimesIntoBackoff_CCH 0
scalar SlicingScenario.node[13].nic.mac1609_4 SlotsBackoff_CCH 0
scalar SlicingScenario.node[13].nic.mac1609_4 NumInternalContention_CCH 0
scalar SlicingScenario.node[13].nic.mac1609_4 RemainingPacketsInEDCA_CCH 0
scalar SlicingScenario.node[13].nic.mac1609_4 totalBusyTime_CCH 0
scalar SlicingScenario.node[13].nic.mac1609_4 ReceivedUnicastPackets_SCH 0
scalar SlicingScenario.node[13].nic.mac1609_4 ReceivedBroadcasts_SCH 18608
scalar SlicingScenario.node[13].nic.mac1609_4 SentPackets_SCH 0
scalar SlicingScenario.node[13].nic.mac1609_4 SentAcknowledgements_SCH 0
scalar SlicingScenario.node[13].nic.mac1609_4 SNIRLostPackets_SCH 0
scalar SlicingScenario.node[13].nic.mac1609_4 RXTXLostPackets_SCH 0
scalar SlicingScenario.node[13].nic.mac1609_4 TotalLostPackets_SCH 0
scalar SlicingScenario.node[13].nic.mac1609_4 DroppedPacketsInMac_SCH 0
scalar SlicingScenario.node[13].nic.mac1609_4 TooLittleTime_SCH 0
scalar SlicingScenario.node[13].nic.mac1609_4 TimesIntoBackoff_SCH 0
scalar SlicingScenario.node[13].nic.mac1609_4 SlotsBackoff_SCH 0
scalar SlicingScenario.node[13].nic.mac1609_4 NumInternalContention_SCH 0
scalar SlicingScenario.node[13].nic.mac1609_4 RemainingPacketsInEDCA_SCH 0
scalar SlicingScenario.node[13].nic.mac1609_4 totalBusyTime_SCH 36.757824
scalar SlicingScenario.node[13].veinsmobility startTime 5
scalar SlicingScenario.node[13].veinsmobility totalTime 94
scalar SlicingScenario.node[13].veinsmobility stopTime 100
scalar SlicingScenario.node[13].veinsmobility minSpeed 4.9035059275439
scalar SlicingScenario.node[13].veinsmobility maxSpeed 11.104806784671
scalar SlicingScenario.node[13].veinsmobility totalDistance 983.21553948447
scalar SlicingScenario.node[13].veinsmobility totalCO2Emission 173.11501902569
scalar SlicingScenario.node[12].appl txPackets_CCH_85 0
scalar SlicingScenario.node[12].appl rxPackets_CCH_85 0
scalar SlicingScenario.node[12].appl rxNeighborPackets_CCH_85 0
scalar SlicingScenario.node[12].appl meanDelay_CCH_85 0
scalar SlicingScenario.node[12].appl meanJitter_CCH_85 0
scalar SlicingScenario.node[12].appl meanRxPacketSize_CCH_85 0
scalar SlicingScenario.node[12].appl meanTxPacketSize_CCH_85 0
scalar SlicingScenario.node[12].appl meanRxThroughput_CCH_85 0
scalar SlicingScenario.node[12].appl meanTxThroughput_CCH_85 0
scalar SlicingScenario.node[12].appl rxTimeOfService_CCH_85 0
scalar SlicingScenario.node[12].appl txTimeOfService_CCH_85 0
scalar SlicingScenario.node[12].appl txPackets_SCH_41_85 0
scalar SlicingScenario.node[12].appl rxPackets_SCH_41_85 903
scalar SlicingScenario.node[12].appl rxNeighborPackets_SCH_41_85 16086
scalar SlicingScenario.node[12].appl meanDelay_SCH_41_85 53.782783371383
scalar SlicingScenario.node[12].appl meanJitter_SCH_41_85 0.087457892836
scalar SlicingScenario.node[12].appl meanRxPacketSize_SCH_41_85 1438
scalar SlicingScenario.node[12].appl meanTxPacketSize_SCH_41_85 0
scalar SlicingScenario.node[12].appl meanRxThroughput_SCH_41_85 193885.82189792
scalar SlicingScenario.node[12].appl meanTxThroughput_SCH_41_85 0
scalar SlicingScenario.node[12].appl rxTimeOfService_SCH_41_85 53.599793415898
scalar SlicingScenario.node[12].appl txTimeOfService_SCH_41_85 0
scalar SlicingScenario.node[12].nic.phy80211p busyTime 0.38245136842107
scalar SlicingScenario.node[12].nic.phy80211p ncollisions 0
scalar SlicingScenario.node[12].nic.phy80211p UnderSensitivityPackets 1502
scalar SlicingScenario.node[12].nic.mac1609_4 ReceivedUnicastPackets_CCH 0
scalar SlicingScenario.node[12].nic.mac1609_4 ReceivedBroadcasts_CCH 0
scalar SlicingScenario.node[12].nic.mac1609_4 SentPackets_CCH 0
scalar SlicingScenario.node[12].nic.mac1609_4 SentAcknowledgements_CCH 0
scalar SlicingScenario.node[12].nic.mac1609_4 SNIRLostPackets_CCH 0
scalar SlicingScenario.node[12].nic.mac1609_4 RXTXLostPackets_CCH 0
scalar SlicingScenario.node[12].nic.mac1609_4 TotalLostPackets_CCH 0
scalar SlicingScenario.node[12].nic.mac1609_4 DroppedPacketsInMac_CCH 0
scalar SlicingScenario.node[12].nic.mac1609_4 TooLittleTime_CCH 0
scalar SlicingScenario.node[12].nic.mac1609_4 TimesIntoBackoff_CCH 0
scalar SlicingScenario.node[12].nic.mac1609_4 SlotsBackoff_CCH 0
scalar SlicingScenario.node[12].nic.mac1609_4 NumInternalContention_CCH 0
scalar SlicingScenario.node[12].nic.mac1609_4 RemainingPacketsInEDCA_CCH 0
scalar SlicingScenario.node[12].nic.mac1609_4 totalBusyTime_CCH 0
scalar SlicingScenario.node[12].nic.mac1609_4 ReceivedUnicastPackets_SCH 0
scalar SlicingScenario.node[12].nic.mac1609_4 ReceivedBroadcasts_SCH 18393
scalar SlicingScenario.node[12].nic.mac1609_4 SentPackets_SCH 0
scalar SlicingScenario.node[12].nic.mac1609_4 SentAcknowledgements_SCH 0
scalar SlicingScenario.node[12].nic.mac1609_4 SNIRLostPackets_SCH 0
scalar SlicingScenario.node[12].nic.mac1609_4 RXTXLostPackets_SCH 0
scalar SlicingScenario.node[12].nic.mac1609_4 TotalLostPackets_SCH 0
scalar SlicingScenario.node[12].nic.mac1609_4 DroppedPacketsInMac_SCH 0
scalar SlicingScenario.node[12].nic.mac1609_4 TooLittleTime_SCH 0
scalar SlicingScenario.node[12].nic.mac1609_4 TimesIntoBackoff_SCH 0
scalar SlicingScenario.node[12].nic.mac1609_4 SlotsBackoff_SCH 0
scalar SlicingScenario.node[12].nic.mac1609_4 NumInternalContention_SCH 0
scalar SlicingScenario.node[12].nic.mac1609_4 RemainingPacketsInEDCA_SCH 0
scalar SlicingScenario.node[12].nic.mac1609_4 totalBusyTime_SCH 36.33288
scalar SlicingScenario.node[12].veinsmobility startTime 5
scalar SlicingScenario.node[12].veinsmobility totalTime 94
scalar SlicingScenario.node[12].veinsmobility stopTime 100
scalar SlicingScenario.node[12].veinsmobility minSpeed 4.9385742039403
scalar SlicingScenario.node[12].veinsmobility maxSpeed 11.099764313912
scalar SlicingScenario.node[12].veinsmobility totalDistance 983.51382027572
scalar SlicingScenario.node[12].veinsmobility totalCO2Emission 174.58155507813
scalar SlicingScenario.node[14].appl txPackets_CCH_97 0
scalar SlicingScenario.node[14].appl rxPackets_CCH_97 0
scalar SlicingScenario.node[14].appl rxNeighborPackets_CCH_97 0
scalar SlicingScenario.node[14].appl meanDelay_CCH_97 0
scalar SlicingScenario.node[14].appl meanJitter_CCH_97 0
scalar SlicingScenario.node[14].appl meanRxPacketSize_CCH_97 0
scalar SlicingScenario.node[14].appl meanTxPacketSize_CCH_97 0
scalar SlicingScenario.node[14].appl meanRxThroughput_CCH_97 0
scalar SlicingScenario.node[14].appl meanTxThroughput_CCH_97 0
scalar SlicingScenario.node[14].appl rxTimeOfService_CCH_97 0
scalar SlicingScenario.node[14].appl txTimeOfService_CCH_97 0
scalar SlicingScenario.node[14].appl txPackets_SCH_41_97 0
scalar SlicingScenario.node[14].appl rxPackets_SCH_41_97 917
scalar SlicingScenario.node[14].appl rxNeighborPackets_SCH_41_97 16267
scalar SlicingScenario.node[14].appl meanDelay_SCH_41_97 53.301490740696
scalar SlicingScenario.node[14].appl meanJitter_SCH_41_97 0.086010815502
scalar SlicingScenario.node[14].appl meanRxPacketSize_SCH_41_97 1438
scalar SlicingScenario.node[14].appl meanTxPacketSize_SCH_41_97 0
scalar SlicingScenario.node[14].appl meanRxThroughput_SCH_41_97 194459.95666863
scalar SlicingScenario.node[14].appl meanTxThroughput_SCH_41_97 0
scalar SlicingScenario.node[14].appl rxTimeOfService_SCH_41_97 54.270093343604
scalar SlicingScenario.node[14].appl txTimeOfService_SCH_41_97 0
scalar SlicingScenario.node[14].nic.phy80211p busyTime 0.38692446315791
scalar SlicingScenario.node[14].nic.phy80211p ncollisions 0
scalar SlicingScenario.node[14].nic.phy80211p UnderSensitivityPackets 1287
scalar SlicingScenario.node[14].nic.mac1609_4 ReceivedUnicastPackets_CCH 0
scalar SlicingScenario.node[14].nic.mac1609_4 ReceivedBroadcasts_CCH 0
scalar SlicingScenario.node[14].nic.mac1609_4 SentPackets_CCH 0
scalar SlicingScenario.node[14].nic.mac1609_4 SentAcknowledgements_CCH 0
scalar SlicingScenario.node[14].nic.mac1609_4 SNIRLostPackets_CCH 0
scalar SlicingScenario.node[14].nic.mac1609_4 RXTXLostPackets_CCH 0
scalar SlicingScenario.node[14].nic.mac1609_4 TotalLostPackets_CCH 0
scalar SlicingScenario.node[14].nic.mac1609_4 DroppedPacketsInMac_CCH 0
scalar SlicingScenario.node[14].nic.mac1609_4 TooLittleTime_CCH 0
scalar SlicingScenario.node[14].nic.mac1609_4 TimesIntoBackoff_CCH 0
scalar SlicingScenario.node[14].nic.mac1609_4 SlotsBackoff_CCH 0
scalar SlicingScenario.node[14].nic.mac1609_4 NumInternalContention_CCH 0
scalar SlicingScenario.node[14].nic.mac1609_4 RemainingPacketsInEDCA_CCH 0
scalar SlicingScenario.node[14].nic.mac1609_4 totalBusyTime_CCH 0
scalar SlicingScenario.node[14].nic.mac1609_4 ReceivedUnicastPackets_SCH 0
scalar SlicingScenario.node[14].nic.mac1609_4 ReceivedBroadcasts_SCH 18608
scalar SlicingScenario.node[14].nic.mac1609_4 SentPackets_SCH 0
scalar SlicingScenario.node[14].nic.mac1609_4 SentAcknowledgements_SCH 0
scalar SlicingScenario.node[14].nic.mac1609_4 SNIRLostPackets_SCH 0
scalar SlicingScenario.node[14].nic.mac1609_4 RXTXLostPackets_SCH 0
scalar SlicingScenario.node[14].nic.mac1609_4 TotalLostPackets_SCH 0
scalar SlicingScenario.node[14].nic.mac1609_4 DroppedPacketsInMac_SCH 0
scalar SlicingScenario.node[14].nic.mac1609_4 TooLittleTime_SCH 0
scalar SlicingScenario.node[14].nic.mac1609_4 TimesIntoBackoff_SCH 0
scalar SlicingScenario.node[14].nic.mac1609_4 SlotsBackoff_SCH 0
scalar SlicingScenario.node[14].nic.mac1609_4 NumInternalContention_SCH 0
scalar SlicingScenario.node[14].nic.mac1609_4 RemainingPacketsInEDCA_SCH 0
scalar SlicingScenario.node[14].nic.mac1609_4 totalBusyTime_SCH 36.757824
scalar SlicingScenario.node[14].veinsmobility startTime 5
scalar SlicingScenario.node[14].veinsmobility totalTime 94
scalar SlicingScenario.node[14].veinsmobility stopTime 100
scalar SlicingScenario.node[14].veinsmobility minSpeed 4.2353026012625
scalar SlicingScenario.node[14].veinsmobility maxSpeed 11.10963813182
scalar SlicingScenario.node[14].veinsmobility totalDistance 978.17792063718
scalar SlicingScenario.node[14].veinsmobility totalCO2Emission 174.30010712285
scalar SlicingScenario.node[17].appl txPackets_CCH_115 0
scalar SlicingScenario.node[17].appl rxPackets_CCH_115 0
scalar SlicingScenario.node[17].appl rxNeighborPackets_CCH_115 0
scalar SlicingScenario.node[17].appl meanDelay_CCH_115 0
scalar SlicingScenario.node[17].appl meanJitter_CCH_115 0
scalar SlicingScenario.node[17].appl meanRxPacketSize_CCH_115 0
scalar SlicingScenario.node[17].appl meanTxPacketSize_CCH_115 0
scalar SlicingScenario.node[17].appl meanRxThroughput_CCH_115 0
scalar SlicingScenario.node[17].appl meanTxThroughput_CCH_115 0
scalar SlicingScenario.node[17].appl rxTimeOfService_CCH_115 0
scalar SlicingScenario.node[17].appl txTimeOfService_CCH_115 0
scalar SlicingScenario.node[17].appl txPackets_SCH_40_115 0
scalar SlicingScenario.node[17].appl rxPackets_SCH_40_115 33
scalar SlicingScenario.node[17].appl rxNeighborPackets_SCH_40_115 1407
scalar SlicingScenario.node[17].appl meanDelay_SCH_40_115 72.847306474818
scalar SlicingScenario.node[17].appl meanJitter_SCH_40_115 2.482555380841
scalar SlicingScenario.node[17].appl meanRxPacketSize_SCH_40_115 1510
scalar SlicingScenario.node[17].appl meanTxPacketSize_SCH_40_115 0
scalar SlicingScenario.node[17].appl meanRxThroughput_SCH_40_115 28032.979528777
scalar SlicingScenario.node[17].appl meanTxThroughput_SCH_40_115 0
scalar SlicingScenario.node[17].appl rxTimeOfService_SCH_40_115 14.2203935044
scalar SlicingScenario.node[17].appl txTimeOfService_SCH_40_115 0
scalar SlicingScenario.node[17].nic.phy80211p busyTime 0.39557617021277
scalar SlicingScenario.node[17].nic.phy80211p ncollisions 0
scalar SlicingScenario.node[17].nic.phy80211p UnderSensitivityPackets 1287
scalar SlicingScenario.node[17].nic.mac1609_4 ReceivedUnicastPackets_CCH 0
scalar SlicingScenario.node[17].nic.mac1609_4 ReceivedBroadcasts_CCH 0
scalar SlicingScenario.node[17].nic.mac1609_4 SentPackets_CCH 0
scalar SlicingScenario.node[17].nic.mac1609_4 SentAcknowledgements_CCH 0
scalar SlicingScenario.node[17].nic.mac1609_4 SNIRLostPackets_CCH 0
scalar SlicingScenario.node[17].nic.mac1609_4 RXTXLostPackets_CCH 0
scalar SlicingScenario.node[17].nic.mac1609_4 TotalLostPackets_CCH 0
scalar SlicingScenario.node[17].nic.mac1609_4 DroppedPacketsInMac_CCH 0
scalar SlicingScenario.node[17].nic.mac1609_4 TooLittleTime_CCH 0
scalar SlicingScenario.node[17].nic.mac1609_4 TimesIntoBackoff_CCH 0
scalar SlicingScenario.node[17].nic.mac1609_4 SlotsBackoff_CCH 0
scalar SlicingScenario.node[17].nic.mac1609_4 NumInternalContention_CCH 0
scalar SlicingScenario.node[17].nic.mac1609_4 RemainingPacketsInEDCA_CCH 0
scalar SlicingScenario.node[17].nic.mac1609_4 totalBusyTime_CCH 0
scalar SlicingScenario.node[17].nic.mac1609_4 ReceivedUnicastPackets_SCH 0
scalar SlicingScenario.node[17].nic.mac1609_4 ReceivedBroadcasts_SCH 18824
scalar SlicingScenario.node[17].nic.mac1609_4 SentPackets_SCH 0
scalar SlicingScenario.node[17].nic.mac1609_4 SentAcknowledgements_SCH 0
scalar SlicingScenario.node[17].nic.mac1609_4 SNIRLostPackets_SCH 0
scalar SlicingScenario.node[17].nic.mac1609_4 RXTXLostPackets_SCH 0
scalar SlicingScenario.node[17].nic.mac1609_4 TotalLostPackets_SCH 0
scalar SlicingScenario.node[17].nic.mac1609_4 DroppedPacketsInMac_SCH 0
scalar SlicingScenario.node[17].nic.mac1609_4 TooLittleTime_SCH 0
scalar SlicingScenario.node[17].nic.mac1609_4 TimesIntoBackoff_SCH 0
scalar SlicingScenario.node[17].nic.mac1609_4 SlotsBackoff_SCH 0
scalar SlicingScenario.node[17].nic.mac1609_4 NumInternalContention_SCH 0
scalar SlicingScenario.node[17].nic.mac1609_4 RemainingPacketsInEDCA_SCH 0
scalar SlicingScenario.node[17].nic.mac1609_4 totalBusyTime_SCH 37.18416
scalar SlicingScenario.node[17].veinsmobility startTime 7
scalar SlicingScenario.node[17].veinsmobility totalTime 93
scalar SlicingScenario.node[17].veinsmobility stopTime 101
scalar SlicingScenario.node[17].veinsmobility minSpeed 5.5166173060376
scalar SlicingScenario.node[17].veinsmobility maxSpeed 11.105664270013
scalar SlicingScenario.node[17].veinsmobility totalDistance 980.21863075986
scalar SlicingScenario.node[17].veinsmobility totalCO2Emission 173.10213494047
scalar SlicingScenario.node[18].appl txPackets_CCH_121 0
scalar SlicingScenario.node[18].appl rxPackets_CCH_121 0
scalar SlicingScenario.node[18].appl rxNeighborPackets_CCH_121 0
scalar SlicingScenario.node[18].appl meanDelay_CCH_121 0
scalar SlicingScenario.node[18].appl meanJitter_CCH_121 0
scalar SlicingScenario.node[18].appl meanRxPacketSize_CCH_121 0
scalar SlicingScenario.node[18].appl meanTxPacketSize_CCH_121 0
scalar SlicingScenario.node[18].appl meanRxThroughput_CCH_121 0
scalar SlicingScenario.node[18].appl meanTxThroughput_CCH_121 0
scalar SlicingScenario.node[18].appl rxTimeOfService_CCH_121 0
scalar SlicingScenario.node[18].appl txTimeOfService_CCH_121 0
scalar SlicingScenario.node[18].appl txPackets_SCH_41_121 0
scalar SlicingScenario.node[18].appl rxPackets_SCH_41_121 210
scalar SlicingScenario.node[18].appl rxNeighborPackets_SCH_41_121 17368
scalar SlicingScenario.node[18].appl meanDelay_SCH_41_121 74.35452917524
scalar SlicingScenario.node[18].appl meanJitter_SCH_41_121 0.38452164476
scalar SlicingScenario.node[18].appl meanRxPacketSize_SCH_41_121 1438
scalar SlicingScenario.node[18].appl meanTxPacketSize_SCH_41_121 0
scalar SlicingScenario.node[18].appl meanRxThroughput_SCH_41_121 182979.43767431
scalar SlicingScenario.node[18].appl meanTxThroughput_SCH_41_121 0
scalar SlicingScenario.node[18].appl rxTimeOfService_SCH_41_121 13.208041464756
scalar SlicingScenario.node[18].appl txTimeOfService_SCH_41_121 0
scalar SlicingScenario.node[18].nic.phy80211p busyTime 0.39577667368421
scalar SlicingScenario.node[18].nic.phy80211p ncollisions 0
scalar SlicingScenario.node[18].nic.phy80211p UnderSensitivityPackets 1289
scalar SlicingScenario.node[18].nic.mac1609_4 ReceivedUnicastPackets_CCH 0
scalar SlicingScenario.node[18].nic.mac1609_4 ReceivedBroadcasts_CCH 0
scalar SlicingScenario.node[18].nic.mac1609_4 SentPackets_CCH 0
scalar SlicingScenario.node[18].nic.mac1609_4 SentAcknowledgements_CCH 0
scalar SlicingScenario.node[18].nic.mac1609_4 SNIRLostPackets_CCH 0
scalar SlicingScenario.node[18].nic.mac1609_4 RXTXLostPackets_CCH 0
scalar SlicingScenario.node[18].nic.mac1609_4 TotalLostPackets_CCH 0
scalar SlicingScenario.node[18].nic.mac1609_4 DroppedPacketsInMac_CCH 0
scalar SlicingScenario.node[18].nic.mac1609_4 TooLittleTime_CCH 0
scalar SlicingScenario.node[18].nic.mac1609_4 TimesIntoBackoff_CCH 0
scalar SlicingScenario.node[18].nic.mac1609_4 SlotsBackoff_CCH 0
scalar SlicingScenario.node[18].nic.mac1609_4 NumInternalContention_CCH 0
scalar SlicingScenario.node[18].nic.mac1609_4 RemainingPacketsInEDCA_CCH 0
scalar SlicingScenario.node[18].nic.mac1609_4 totalBusyTime_CCH 0
scalar SlicingScenario.node[18].nic.mac1609_4 ReceivedUnicastPackets_SCH 0
scalar SlicingScenario.node[18].nic.mac1609_4 ReceivedBroadcasts_SCH 19034
scalar SlicingScenario.node[18].nic.mac1609_4 SentPackets_SCH 0
scalar SlicingScenario.node[18].nic.mac1609_4 SentAcknowledgements_SCH 0
scalar SlicingScenario.node[18].nic.mac1609_4 SNIRLostPackets_SCH 0
scalar SlicingScenario.node[18].nic.mac1609_4 RXTXLostPackets_SCH 0
scalar SlicingScenario.node[18].nic.mac1609_4 TotalLostPackets_SCH 0
scalar SlicingScenario.node[18].nic.mac1609_4 DroppedPacketsInMac_SCH 0
scalar SlicingScenario.node[18].nic.mac1609_4 TooLittleTime_SCH 0
scalar SlicingScenario.node[18].nic.mac1609_4 TimesIntoBackoff_SCH 0
scalar SlicingScenario.node[18].nic.mac1609_4 SlotsBackoff_SCH 0
scalar SlicingScenario.node[18].nic.mac1609_4 NumInternalContention_SCH 0
scalar SlicingScenario.node[18].nic.mac1609_4 RemainingPacketsInEDCA_SCH 0
scalar SlicingScenario.node[18].nic.mac1609_4 totalBusyTime_SCH 37.598784
scalar SlicingScenario.node[18].veinsmobility startTime 7
scalar SlicingScenario.node[18].veinsmobility totalTime 94
scalar SlicingScenario.node[18].veinsmobility stopTime 102
scalar SlicingScenario.node[18].veinsmobility minSpeed 4.8855530989433
scalar SlicingScenario.node[18].veinsmobility maxSpeed 11.107938905144
scalar SlicingScenario.node[18].veinsmobility totalDistance 980.65016086302
scalar SlicingScenario.node[18].veinsmobility totalCO2Emission 172.88024678937
scalar SlicingScenario.node[16].appl txPackets_CCH_109 0
scalar SlicingScenario.node[16].appl rxPackets_CCH_109 0
scalar SlicingScenario.node[16].appl rxNeighborPackets_CCH_109 0
scalar SlicingScenario.node[16].appl meanDelay_CCH_109 0
scalar SlicingScenario.node[16].appl meanJitter_CCH_109 0
scalar SlicingScenario.node[16].appl meanRxPacketSize_CCH_109 0
scalar SlicingScenario.node[16].appl meanTxPacketSize_CCH_109 0
scalar SlicingScenario.node[16].appl meanRxThroughput_CCH_109 0
scalar SlicingScenario.node[16].appl meanTxThroughput_CCH_109 0
scalar SlicingScenario.node[16].appl rxTimeOfService_CCH_109 0
scalar SlicingScenario.node[16].appl txTimeOfService_CCH_109 0
scalar SlicingScenario.node[16].appl txPackets_SCH_40_109 0
scalar SlicingScenario.node[16].appl rxPackets_SCH_40_109 48
scalar SlicingScenario.node[16].appl rxNeighborPackets_SCH_40_109 1408
scalar SlicingScenario.node[16].appl meanDelay_SCH_40_109 70.987242077231
scalar SlicingScenario.node[16].appl meanJitter_SCH_40_109 1.713317013854
scalar SlicingScenario.node[16].appl meanRxPacketSize_SCH_40_109 1510
scalar SlicingScenario.node[16].appl meanTxPacketSize_SCH_40_109 0
scalar SlicingScenario.node[16].appl meanRxThroughput_SCH_40_109 28704.9310062
scalar SlicingScenario.node[16].appl meanTxThroughput_SCH_40_109 0
scalar SlicingScenario.node[16].appl rxTimeOfService_SCH_40_109 20.200013714534
scalar SlicingScenario.node[16].appl txTimeOfService_SCH_40_109 0
scalar SlicingScenario.node[16].nic.phy80211p busyTime 0.39577667368421
scalar SlicingScenario.node[16].nic.phy80211p ncollisions 0
scalar SlicingScenario.node[16].nic.phy80211p UnderSensitivityPackets 1289
scalar SlicingScenario.node[16].nic.mac1609_4 ReceivedUnicastPackets_CCH 0
scalar SlicingScenario.node[16].nic.mac1609_4 ReceivedBroadcasts_CCH 274
scalar SlicingScenario.node[16].nic.mac1609_4 SentPackets_CCH 0
scalar SlicingScenario.node[16].nic.mac1609_4 SentAcknowledgements_CCH 0
scalar SlicingScenario.node[16].nic.mac1609_4 SNIRLostPackets_CCH 0
scalar SlicingScenario.node[16].nic.mac1609_4 RXTXLostPackets_CCH 0
scalar SlicingScenario.node[16].nic.mac1609_4 TotalLostPackets_CCH 0
scalar SlicingScenario.node[16].nic.mac1609_4 DroppedPacketsInMac_CCH 0
scalar SlicingScenario.node[16].nic.mac1609_4 TooLittleTime_CCH 0
scalar SlicingScenario.node[16].nic.mac1609_4 TimesIntoBackoff_CCH 0
scalar SlicingScenario.node[16].nic.mac1609_4 SlotsBackoff_CCH 0
scalar SlicingScenario.node[16].nic.mac1609_4 NumInternalContention_CCH 0
scalar SlicingScenario.node[16].nic.mac1609_4 RemainingPacketsInEDCA_CCH 0
scalar SlicingScenario.node[16].nic.mac1609_4 totalBusyTime_CCH 1.04253325029
scalar SlicingScenario.node[16].nic.mac1609_4 ReceivedUnicastPackets_SCH 0
scalar SlicingScenario.node[16].nic.mac1609_4 ReceivedBroadcasts_SCH 18760
scalar SlicingScenario.node[16].nic.mac1609_4 SentPackets_SCH 0
scalar SlicingScenario.node[16].nic.mac1609_4 SentAcknowledgements_SCH 0
scalar SlicingScenario.node[16].nic.mac1609_4 SNIRLostPackets_SCH 0
scalar SlicingScenario.node[16].nic.mac1609_4 RXTXLostPackets_SCH 0
scalar SlicingScenario.node[16].nic.mac1609_4 TotalLostPackets_SCH 0
scalar SlicingScenario.node[16].nic.mac1609_4 DroppedPacketsInMac_SCH 0
scalar SlicingScenario.node[16].nic.mac1609_4 TooLittleTime_SCH 0
scalar SlicingScenario.node[16].nic.mac1609_4 TimesIntoBackoff_SCH 0
scalar SlicingScenario.node[16].nic.mac1609_4 SlotsBackoff_SCH 0
scalar SlicingScenario.node[16].nic.mac1609_4 NumInternalContention_SCH 0
scalar SlicingScenario.node[16].nic.mac1609_4 RemainingPacketsInEDCA_SCH 0
scalar SlicingScenario.node[16].nic.mac1609_4 totalBusyTime_SCH 37.068864
scalar SlicingScenario.node[16].veinsmobility startTime 7
scalar SlicingScenario.node[16].veinsmobility totalTime 94
scalar SlicingScenario.node[16].veinsmobility stopTime 102
scalar SlicingScenario.node[16].veinsmobility minSpeed 4.9039530924249
[...]
scalar SlicingScenario.rsu[0].appl meanRxPacketSize_SCH_41_1909 0
scalar SlicingScenario.rsu[0].appl meanTxPacketSize_SCH_41_1909 0
scalar SlicingScenario.rsu[0].appl meanRxThroughput_SCH_41_1909 0
scalar SlicingScenario.rsu[0].appl meanTxThroughput_SCH_41_1909 0
scalar SlicingScenario.rsu[0].appl rxTimeOfService_SCH_41_1909 0
scalar SlicingScenario.rsu[0].appl txTimeOfService_SCH_41_1909 0
scalar SlicingScenario.rsu[0].appl txPackets_SCH_41_1915 0
scalar SlicingScenario.rsu[0].appl rxPackets_SCH_41_1915 0
scalar SlicingScenario.rsu[0].appl rxNeighborPackets_SCH_41_1915 0
scalar SlicingScenario.rsu[0].appl meanDelay_SCH_41_1915 0
scalar SlicingScenario.rsu[0].appl meanJitter_SCH_41_1915 0
scalar SlicingScenario.rsu[0].appl meanRxPacketSize_SCH_41_1915 0
scalar SlicingScenario.rsu[0].appl meanTxPacketSize_SCH_41_1915 0
scalar SlicingScenario.rsu[0].appl meanRxThroughput_SCH_41_1915 0
scalar SlicingScenario.rsu[0].appl meanTxThroughput_SCH_41_1915 0
scalar SlicingScenario.rsu[0].appl rxTimeOfService_SCH_41_1915 0
scalar SlicingScenario.rsu[0].appl txTimeOfService_SCH_41_1915 0
scalar SlicingScenario.rsu[0].appl txPackets_SCH_41_1921 0
scalar SlicingScenario.rsu[0].appl rxPackets_SCH_41_1921 0
scalar SlicingScenario.rsu[0].appl rxNeighborPackets_SCH_41_1921 0
scalar SlicingScenario.rsu[0].appl meanDelay_SCH_41_1921 0
scalar SlicingScenario.rsu[0].appl meanJitter_SCH_41_1921 0
scalar SlicingScenario.rsu[0].appl meanRxPacketSize_SCH_41_1921 0
scalar SlicingScenario.rsu[0].appl meanTxPacketSize_SCH_41_1921 0
scalar SlicingScenario.rsu[0].appl meanRxThroughput_SCH_41_1921 0
scalar SlicingScenario.rsu[0].appl meanTxThroughput_SCH_41_1921 0
scalar SlicingScenario.rsu[0].appl rxTimeOfService_SCH_41_1921 0
scalar SlicingScenario.rsu[0].appl txTimeOfService_SCH_41_1921 0
scalar SlicingScenario.rsu[0].appl txPackets_SCH_41_1939 0
scalar SlicingScenario.rsu[0].appl rxPackets_SCH_41_1939 0
scalar SlicingScenario.rsu[0].appl rxNeighborPackets_SCH_41_1939 0
scalar SlicingScenario.rsu[0].appl meanDelay_SCH_41_1939 0
scalar SlicingScenario.rsu[0].appl meanJitter_SCH_41_1939 0
scalar SlicingScenario.rsu[0].appl meanRxPacketSize_SCH_41_1939 0
scalar SlicingScenario.rsu[0].appl meanTxPacketSize_SCH_41_1939 0
scalar SlicingScenario.rsu[0].appl meanRxThroughput_SCH_41_1939 0
scalar SlicingScenario.rsu[0].appl meanTxThroughput_SCH_41_1939 0
scalar SlicingScenario.rsu[0].appl rxTimeOfService_SCH_41_1939 0
scalar SlicingScenario.rsu[0].appl txTimeOfService_SCH_41_1939 0
scalar SlicingScenario.rsu[0].appl txPackets_SCH_41_1951 0
scalar SlicingScenario.rsu[0].appl rxPackets_SCH_41_1951 0
scalar SlicingScenario.rsu[0].appl rxNeighborPackets_SCH_41_1951 0
scalar SlicingScenario.rsu[0].appl meanDelay_SCH_41_1951 0
scalar SlicingScenario.rsu[0].appl meanJitter_SCH_41_1951 0
scalar SlicingScenario.rsu[0].appl meanRxPacketSize_SCH_41_1951 0
scalar SlicingScenario.rsu[0].appl meanTxPacketSize_SCH_41_1951 0
scalar SlicingScenario.rsu[0].appl meanRxThroughput_SCH_41_1951 0
scalar SlicingScenario.rsu[0].appl meanTxThroughput_SCH_41_1951 0
scalar SlicingScenario.rsu[0].appl rxTimeOfService_SCH_41_1951 0
scalar SlicingScenario.rsu[0].appl txTimeOfService_SCH_41_1951 0
scalar SlicingScenario.rsu[0].appl txPackets_SCH_41_1963 0
scalar SlicingScenario.rsu[0].appl rxPackets_SCH_41_1963 0
scalar SlicingScenario.rsu[0].appl rxNeighborPackets_SCH_41_1963 0
scalar SlicingScenario.rsu[0].appl meanDelay_SCH_41_1963 0
scalar SlicingScenario.rsu[0].appl meanJitter_SCH_41_1963 0
scalar SlicingScenario.rsu[0].appl meanRxPacketSize_SCH_41_1963 0
scalar SlicingScenario.rsu[0].appl meanTxPacketSize_SCH_41_1963 0
scalar SlicingScenario.rsu[0].appl meanRxThroughput_SCH_41_1963 0
scalar SlicingScenario.rsu[0].appl meanTxThroughput_SCH_41_1963 0
scalar SlicingScenario.rsu[0].appl rxTimeOfService_SCH_41_1963 0
scalar SlicingScenario.rsu[0].appl txTimeOfService_SCH_41_1963 0
scalar SlicingScenario.rsu[0].appl txPackets_SCH_41_1975 0
scalar SlicingScenario.rsu[0].appl rxPackets_SCH_41_1975 0
scalar SlicingScenario.rsu[0].appl rxNeighborPackets_SCH_41_1975 0
scalar SlicingScenario.rsu[0].appl meanDelay_SCH_41_1975 0
scalar SlicingScenario.rsu[0].appl meanJitter_SCH_41_1975 0
scalar SlicingScenario.rsu[0].appl meanRxPacketSize_SCH_41_1975 0
scalar SlicingScenario.rsu[0].appl meanTxPacketSize_SCH_41_1975 0
scalar SlicingScenario.rsu[0].appl meanRxThroughput_SCH_41_1975 0
scalar SlicingScenario.rsu[0].appl meanTxThroughput_SCH_41_1975 0
scalar SlicingScenario.rsu[0].appl rxTimeOfService_SCH_41_1975 0
scalar SlicingScenario.rsu[0].appl txTimeOfService_SCH_41_1975 0
scalar SlicingScenario.rsu[0].appl txPackets_SCH_41_1993 0
scalar SlicingScenario.rsu[0].appl rxPackets_SCH_41_1993 0
scalar SlicingScenario.rsu[0].appl rxNeighborPackets_SCH_41_1993 0
scalar SlicingScenario.rsu[0].appl meanDelay_SCH_41_1993 0
scalar SlicingScenario.rsu[0].appl meanJitter_SCH_41_1993 0
scalar SlicingScenario.rsu[0].appl meanRxPacketSize_SCH_41_1993 0
scalar SlicingScenario.rsu[0].appl meanTxPacketSize_SCH_41_1993 0
scalar SlicingScenario.rsu[0].appl meanRxThroughput_SCH_41_1993 0
scalar SlicingScenario.rsu[0].appl meanTxThroughput_SCH_41_1993 0
scalar SlicingScenario.rsu[0].appl rxTimeOfService_SCH_41_1993 0
scalar SlicingScenario.rsu[0].appl txTimeOfService_SCH_41_1993 0
scalar SlicingScenario.rsu[0].appl txPackets_SCH_41_2005 0
scalar SlicingScenario.rsu[0].appl rxPackets_SCH_41_2005 0
scalar SlicingScenario.rsu[0].appl rxNeighborPackets_SCH_41_2005 0
scalar SlicingScenario.rsu[0].appl meanDelay_SCH_41_2005 0
scalar SlicingScenario.rsu[0].appl meanJitter_SCH_41_2005 0
scalar SlicingScenario.rsu[0].appl meanRxPacketSize_SCH_41_2005 0
scalar SlicingScenario.rsu[0].appl meanTxPacketSize_SCH_41_2005 0
scalar SlicingScenario.rsu[0].appl meanRxThroughput_SCH_41_2005 0
scalar SlicingScenario.rsu[0].appl meanTxThroughput_SCH_41_2005 0
scalar SlicingScenario.rsu[0].appl rxTimeOfService_SCH_41_2005 0
scalar SlicingScenario.rsu[0].appl txTimeOfService_SCH_41_2005 0
scalar SlicingScenario.rsu[0].appl txPackets_SCH_41_2017 0
scalar SlicingScenario.rsu[0].appl rxPackets_SCH_41_2017 0
scalar SlicingScenario.rsu[0].appl rxNeighborPackets_SCH_41_2017 0
scalar SlicingScenario.rsu[0].appl meanDelay_SCH_41_2017 0
scalar SlicingScenario.rsu[0].appl meanJitter_SCH_41_2017 0
scalar SlicingScenario.rsu[0].appl meanRxPacketSize_SCH_41_2017 0
scalar SlicingScenario.rsu[0].appl meanTxPacketSize_SCH_41_2017 0
scalar SlicingScenario.rsu[0].appl meanRxThroughput_SCH_41_2017 0
scalar SlicingScenario.rsu[0].appl meanTxThroughput_SCH_41_2017 0
scalar SlicingScenario.rsu[0].appl rxTimeOfService_SCH_41_2017 0
scalar SlicingScenario.rsu[0].appl txTimeOfService_SCH_41_2017 0
scalar SlicingScenario.rsu[0].appl txPackets_SCH_41_2023 0
scalar SlicingScenario.rsu[0].appl rxPackets_SCH_41_2023 0
scalar SlicingScenario.rsu[0].appl rxNeighborPackets_SCH_41_2023 0
scalar SlicingScenario.rsu[0].appl meanDelay_SCH_41_2023 0
scalar SlicingScenario.rsu[0].appl meanJitter_SCH_41_2023 0
scalar SlicingScenario.rsu[0].appl meanRxPacketSize_SCH_41_2023 0
scalar SlicingScenario.rsu[0].appl meanTxPacketSize_SCH_41_2023 0
scalar SlicingScenario.rsu[0].appl meanRxThroughput_SCH_41_2023 0
scalar SlicingScenario.rsu[0].appl meanTxThroughput_SCH_41_2023 0
scalar SlicingScenario.rsu[0].appl rxTimeOfService_SCH_41_2023 0
scalar SlicingScenario.rsu[0].appl txTimeOfService_SCH_41_2023 0
scalar SlicingScenario.rsu[0].appl txPackets_SCH_41_2029 0
scalar SlicingScenario.rsu[0].appl rxPackets_SCH_41_2029 0
scalar SlicingScenario.rsu[0].appl rxNeighborPackets_SCH_41_2029 0
scalar SlicingScenario.rsu[0].appl meanDelay_SCH_41_2029 0
scalar SlicingScenario.rsu[0].appl meanJitter_SCH_41_2029 0
scalar SlicingScenario.rsu[0].appl meanRxPacketSize_SCH_41_2029 0
scalar SlicingScenario.rsu[0].appl meanTxPacketSize_SCH_41_2029 0
scalar SlicingScenario.rsu[0].appl meanRxThroughput_SCH_41_2029 0
scalar SlicingScenario.rsu[0].appl meanTxThroughput_SCH_41_2029 0
scalar SlicingScenario.rsu[0].appl rxTimeOfService_SCH_41_2029 0
scalar SlicingScenario.rsu[0].appl txTimeOfService_SCH_41_2029 0
scalar SlicingScenario.rsu[0].appl txPackets_SCH_41_2035 0
scalar SlicingScenario.rsu[0].appl rxPackets_SCH_41_2035 0
scalar SlicingScenario.rsu[0].appl rxNeighborPackets_SCH_41_2035 0
scalar SlicingScenario.rsu[0].appl meanDelay_SCH_41_2035 0
scalar SlicingScenario.rsu[0].appl meanJitter_SCH_41_2035 0
scalar SlicingScenario.rsu[0].appl meanRxPacketSize_SCH_41_2035 0
scalar SlicingScenario.rsu[0].appl meanTxPacketSize_SCH_41_2035 0
scalar SlicingScenario.rsu[0].appl meanRxThroughput_SCH_41_2035 0
scalar SlicingScenario.rsu[0].appl meanTxThroughput_SCH_41_2035 0
scalar SlicingScenario.rsu[0].appl rxTimeOfService_SCH_41_2035 0
scalar SlicingScenario.rsu[0].appl txTimeOfService_SCH_41_2035 0
scalar SlicingScenario.rsu[0].appl txPackets_SCH_41_2071 0
scalar SlicingScenario.rsu[0].appl rxPackets_SCH_41_2071 0
scalar SlicingScenario.rsu[0].appl rxNeighborPackets_SCH_41_2071 0
scalar SlicingScenario.rsu[0].appl meanDelay_SCH_41_2071 0
scalar SlicingScenario.rsu[0].appl meanJitter_SCH_41_2071 0
scalar SlicingScenario.rsu[0].appl meanRxPacketSize_SCH_41_2071 0
scalar SlicingScenario.rsu[0].appl meanTxPacketSize_SCH_41_2071 0
scalar SlicingScenario.rsu[0].appl meanRxThroughput_SCH_41_2071 0
scalar SlicingScenario.rsu[0].appl meanTxThroughput_SCH_41_2071 0
scalar SlicingScenario.rsu[0].appl rxTimeOfService_SCH_41_2071 0
scalar SlicingScenario.rsu[0].appl txTimeOfService_SCH_41_2071 0
scalar SlicingScenario.rsu[0].appl txPackets_SCH_41_2083 0
scalar SlicingScenario.rsu[0].appl rxPackets_SCH_41_2083 0
scalar SlicingScenario.rsu[0].appl rxNeighborPackets_SCH_41_2083 0
scalar SlicingScenario.rsu[0].appl meanDelay_SCH_41_2083 0
scalar SlicingScenario.rsu[0].appl meanJitter_SCH_41_2083 0
scalar SlicingScenario.rsu[0].appl meanRxPacketSize_SCH_41_2083 0
scalar SlicingScenario.rsu[0].appl meanTxPacketSize_SCH_41_2083 0
scalar SlicingScenario.rsu[0].appl meanRxThroughput_SCH_41_2083 0
scalar SlicingScenario.rsu[0].appl meanTxThroughput_SCH_41_2083 0
scalar SlicingScenario.rsu[0].appl rxTimeOfService_SCH_41_2083 0
scalar SlicingScenario.rsu[0].appl txTimeOfService_SCH_41_2083 0
scalar SlicingScenario.rsu[0].appl txPackets_SCH_41_2089 0
scalar SlicingScenario.rsu[0].appl rxPackets_SCH_41_2089 0
scalar SlicingScenario.rsu[0].appl rxNeighborPackets_SCH_41_2089 0
scalar SlicingScenario.rsu[0].appl meanDelay_SCH_41_2089 0
scalar SlicingScenario.rsu[0].appl meanJitter_SCH_41_2089 0
scalar SlicingScenario.rsu[0].appl meanRxPacketSize_SCH_41_2089 0
scalar SlicingScenario.rsu[0].appl meanTxPacketSize_SCH_41_2089 0
scalar SlicingScenario.rsu[0].appl meanRxThroughput_SCH_41_2089 0
scalar SlicingScenario.rsu[0].appl meanTxThroughput_SCH_41_2089 0
scalar SlicingScenario.rsu[0].appl rxTimeOfService_SCH_41_2089 0
scalar SlicingScenario.rsu[0].appl txTimeOfService_SCH_41_2089 0
scalar SlicingScenario.rsu[0].appl txPackets_SCH_41_2101 0
scalar SlicingScenario.rsu[0].appl rxPackets_SCH_41_2101 0
scalar SlicingScenario.rsu[0].appl rxNeighborPackets_SCH_41_2101 0
scalar SlicingScenario.rsu[0].appl meanDelay_SCH_41_2101 0
scalar SlicingScenario.rsu[0].appl meanJitter_SCH_41_2101 0
scalar SlicingScenario.rsu[0].appl meanRxPacketSize_SCH_41_2101 0
scalar SlicingScenario.rsu[0].appl meanTxPacketSize_SCH_41_2101 0
scalar SlicingScenario.rsu[0].appl meanRxThroughput_SCH_41_2101 0
scalar SlicingScenario.rsu[0].appl meanTxThroughput_SCH_41_2101 0
scalar SlicingScenario.rsu[0].appl rxTimeOfService_SCH_41_2101 0
scalar SlicingScenario.rsu[0].appl txTimeOfService_SCH_41_2101 0
scalar SlicingScenario.rsu[0].appl txPackets_SCH_41_2107 0
scalar SlicingScenario.rsu[0].appl rxPackets_SCH_41_2107 0
scalar SlicingScenario.rsu[0].appl rxNeighborPackets_SCH_41_2107 0
scalar SlicingScenario.rsu[0].appl meanDelay_SCH_41_2107 0
scalar SlicingScenario.rsu[0].appl meanJitter_SCH_41_2107 0
scalar SlicingScenario.rsu[0].appl meanRxPacketSize_SCH_41_2107 0
scalar SlicingScenario.rsu[0].appl meanTxPacketSize_SCH_41_2107 0
scalar SlicingScenario.rsu[0].appl meanRxThroughput_SCH_41_2107 0
scalar SlicingScenario.rsu[0].appl meanTxThroughput_SCH_41_2107 0
scalar SlicingScenario.rsu[0].appl rxTimeOfService_SCH_41_2107 0
scalar SlicingScenario.rsu[0].appl txTimeOfService_SCH_41_2107 0
scalar SlicingScenario.rsu[0].appl txPackets_SCH_41_2125 0
scalar SlicingScenario.rsu[0].appl rxPackets_SCH_41_2125 0
scalar SlicingScenario.rsu[0].appl rxNeighborPackets_SCH_41_2125 0
scalar SlicingScenario.rsu[0].appl meanDelay_SCH_41_2125 0
scalar SlicingScenario.rsu[0].appl meanJitter_SCH_41_2125 0
scalar SlicingScenario.rsu[0].appl meanRxPacketSize_SCH_41_2125 0
scalar SlicingScenario.rsu[0].appl meanTxPacketSize_SCH_41_2125 0
scalar SlicingScenario.rsu[0].appl meanRxThroughput_SCH_41_2125 0
scalar SlicingScenario.rsu[0].appl meanTxThroughput_SCH_41_2125 0
scalar SlicingScenario.rsu[0].appl rxTimeOfService_SCH_41_2125 0
scalar SlicingScenario.rsu[0].appl txTimeOfService_SCH_41_2125 0
scalar SlicingScenario.rsu[0].appl txPackets_SCH_41_2137 0
scalar SlicingScenario.rsu[0].appl rxPackets_SCH_41_2137 0
scalar SlicingScenario.rsu[0].appl rxNeighborPackets_SCH_41_2137 0
scalar SlicingScenario.rsu[0].appl meanDelay_SCH_41_2137 0
scalar SlicingScenario.rsu[0].appl meanJitter_SCH_41_2137 0
scalar SlicingScenario.rsu[0].appl meanRxPacketSize_SCH_41_2137 0
scalar SlicingScenario.rsu[0].appl meanTxPacketSize_SCH_41_2137 0
scalar SlicingScenario.rsu[0].appl meanRxThroughput_SCH_41_2137 0
scalar SlicingScenario.rsu[0].appl meanTxThroughput_SCH_41_2137 0
scalar SlicingScenario.rsu[0].appl rxTimeOfService_SCH_41_2137 0
scalar SlicingScenario.rsu[0].appl txTimeOfService_SCH_41_2137 0
scalar SlicingScenario.rsu[0].appl txPackets_SCH_41_2143 0
scalar SlicingScenario.rsu[0].appl rxPackets_SCH_41_2143 0
scalar SlicingScenario.rsu[0].appl rxNeighborPackets_SCH_41_2143 0
scalar SlicingScenario.rsu[0].appl meanDelay_SCH_41_2143 0
scalar SlicingScenario.rsu[0].appl meanJitter_SCH_41_2143 0
scalar SlicingScenario.rsu[0].appl meanRxPacketSize_SCH_41_2143 0
scalar SlicingScenario.rsu[0].appl meanTxPacketSize_SCH_41_2143 0
scalar SlicingScenario.rsu[0].appl meanRxThroughput_SCH_41_2143 0
scalar SlicingScenario.rsu[0].appl meanTxThroughput_SCH_41_2143 0
scalar SlicingScenario.rsu[0].appl rxTimeOfService_SCH_41_2143 0
scalar SlicingScenario.rsu[0].appl txTimeOfService_SCH_41_2143 0
scalar SlicingScenario.rsu[0].appl txPackets_SCH_41_2155 0
scalar SlicingScenario.rsu[0].appl rxPackets_SCH_41_2155 0
scalar SlicingScenario.rsu[0].appl rxNeighborPackets_SCH_41_2155 0
scalar SlicingScenario.rsu[0].appl meanDelay_SCH_41_2155 0
scalar SlicingScenario.rsu[0].appl meanJitter_SCH_41_2155 0
scalar SlicingScenario.rsu[0].appl meanRxPacketSize_SCH_41_2155 0
scalar SlicingScenario.rsu[0].appl meanTxPacketSize_SCH_41_2155 0
scalar SlicingScenario.rsu[0].appl meanRxThroughput_SCH_41_2155 0
scalar SlicingScenario.rsu[0].appl meanTxThroughput_SCH_41_2155 0
scalar SlicingScenario.rsu[0].appl rxTimeOfService_SCH_41_2155 0
scalar SlicingScenario.rsu[0].appl txTimeOfService_SCH_41_2155 0
scalar SlicingScenario.rsu[0].appl txPackets_SCH_41_2179 0
scalar SlicingScenario.rsu[0].appl rxPackets_SCH_41_2179 0
scalar SlicingScenario.rsu[0].appl rxNeighborPackets_SCH_41_2179 0
scalar SlicingScenario.rsu[0].appl meanDelay_SCH_41_2179 0
scalar SlicingScenario.rsu[0].appl meanJitter_SCH_41_2179 0
scalar SlicingScenario.rsu[0].appl meanRxPacketSize_SCH_41_2179 0
scalar SlicingScenario.rsu[0].appl meanTxPacketSize_SCH_41_2179 0
scalar SlicingScenario.rsu[0].appl meanRxThroughput_SCH_41_2179 0
scalar SlicingScenario.rsu[0].appl meanTxThroughput_SCH_41_2179 0
scalar SlicingScenario.rsu[0].appl rxTimeOfService_SCH_41_2179 0
scalar SlicingScenario.rsu[0].appl txTimeOfService_SCH_41_2179 0
scalar SlicingScenario.rsu[0].appl txPackets_SCH_41_2185 0
scalar SlicingScenario.rsu[0].appl rxPackets_SCH_41_2185 0
scalar SlicingScenario.rsu[0].appl rxNeighborPackets_SCH_41_2185 0
scalar SlicingScenario.rsu[0].appl meanDelay_SCH_41_2185 0
scalar SlicingScenario.rsu[0].appl meanJitter_SCH_41_2185 0
scalar SlicingScenario.rsu[0].appl meanRxPacketSize_SCH_41_2185 0
scalar SlicingScenario.rsu[0].appl meanTxPacketSize_SCH_41_2185 0
scalar SlicingScenario.rsu[0].appl meanRxThroughput_SCH_41_2185 0
scalar SlicingScenario.rsu[0].appl meanTxThroughput_SCH_41_2185 0
scalar SlicingScenario.rsu[0].appl rxTimeOfService_SCH_41_2185 0
scalar SlicingScenario.rsu[0].appl txTimeOfService_SCH_41_2185 0
scalar SlicingScenario.rsu[0].appl txPackets_SCH_41_2191 0
scalar SlicingScenario.rsu[0].appl rxPackets_SCH_41_2191 0
scalar SlicingScenario.rsu[0].appl rxNeighborPackets_SCH_41_2191 0
scalar SlicingScenario.rsu[0].appl meanDelay_SCH_41_2191 0
scalar SlicingScenario.rsu[0].appl meanJitter_SCH_41_2191 0
scalar SlicingScenario.rsu[0].appl meanRxPacketSize_SCH_41_2191 0
scalar SlicingScenario.rsu[0].appl meanTxPacketSize_SCH_41_2191 0
scalar SlicingScenario.rsu[0].appl meanRxThroughput_SCH_41_2191 0
scalar SlicingScenario.rsu[0].appl meanTxThroughput_SCH_41_2191 0
scalar SlicingScenario.rsu[0].appl rxTimeOfService_SCH_41_2191 0
scalar SlicingScenario.rsu[0].appl txTimeOfService_SCH_41_2191 0
scalar SlicingScenario.rsu[0].appl txPackets_SCH_41_2203 0
scalar SlicingScenario.rsu[0].appl rxPackets_SCH_41_2203 0
scalar SlicingScenario.rsu[0].appl rxNeighborPackets_SCH_41_2203 0
scalar SlicingScenario.rsu[0].appl meanDelay_SCH_41_2203 0
scalar SlicingScenario.rsu[0].appl meanJitter_SCH_41_2203 0
scalar SlicingScenario.rsu[0].appl meanRxPacketSize_SCH_41_2203 0
scalar SlicingScenario.rsu[0].appl meanTxPacketSize_SCH_41_2203 0
scalar SlicingScenario.rsu[0].appl meanRxThroughput_SCH_41_2203 0
scalar SlicingScenario.rsu[0].appl meanTxThroughput_SCH_41_2203 0
scalar SlicingScenario.rsu[0].appl rxTimeOfService_SCH_41_2203 0
scalar SlicingScenario.rsu[0].appl txTimeOfService_SCH_41_2203 0
scalar SlicingScenario.rsu[0].nic.phy80211p busyTime 0
scalar SlicingScenario.rsu[0].nic.phy80211p ncollisions 0
scalar SlicingScenario.rsu[0].nic.phy80211p UnderSensitivityPackets 0
scalar SlicingScenario.rsu[0].nic.mac1609_4 ReceivedUnicastPackets_CCH 0
scalar SlicingScenario.rsu[0].nic.mac1609_4 ReceivedBroadcasts_CCH 0
scalar SlicingScenario.rsu[0].nic.mac1609_4 SentPackets_CCH 0
scalar SlicingScenario.rsu[0].nic.mac1609_4 SentAcknowledgements_CCH 0
scalar SlicingScenario.rsu[0].nic.mac1609_4 SNIRLostPackets_CCH 0
scalar SlicingScenario.rsu[0].nic.mac1609_4 RXTXLostPackets_CCH 0
scalar SlicingScenario.rsu[0].nic.mac1609_4 TotalLostPackets_CCH 0
scalar SlicingScenario.rsu[0].nic.mac1609_4 DroppedPacketsInMac_CCH 0
scalar SlicingScenario.rsu[0].nic.mac1609_4 TooLittleTime_CCH 0
scalar SlicingScenario.rsu[0].nic.mac1609_4 TimesIntoBackoff_CCH 0
scalar SlicingScenario.rsu[0].nic.mac1609_4 SlotsBackoff_CCH 0
scalar SlicingScenario.rsu[0].nic.mac1609_4 NumInternalContention_CCH 0
scalar SlicingScenario.rsu[0].nic.mac1609_4 RemainingPacketsInEDCA_CCH 0
scalar SlicingScenario.rsu[0].nic.mac1609_4 totalBusyTime_CCH 0
scalar SlicingScenario.rsu[0].nic.mac1609_4 ReceivedUnicastPackets_SCH 0
scalar SlicingScenario.rsu[0].nic.mac1609_4 ReceivedBroadcasts_SCH 0
scalar SlicingScenario.rsu[0].nic.mac1609_4 SentPackets_SCH 62858
scalar SlicingScenario.rsu[0].nic.mac1609_4 SentAcknowledgements_SCH 0
scalar SlicingScenario.rsu[0].nic.mac1609_4 SNIRLostPackets_SCH 0
scalar SlicingScenario.rsu[0].nic.mac1609_4 RXTXLostPackets_SCH 0
scalar SlicingScenario.rsu[0].nic.mac1609_4 TotalLostPackets_SCH 0
scalar SlicingScenario.rsu[0].nic.mac1609_4 DroppedPacketsInMac_SCH 0
scalar SlicingScenario.rsu[0].nic.mac1609_4 TooLittleTime_SCH 42155
scalar SlicingScenario.rsu[0].nic.mac1609_4 TimesIntoBackoff_SCH 65160
scalar SlicingScenario.rsu[0].nic.mac1609_4 SlotsBackoff_SCH 219829
scalar SlicingScenario.rsu[0].nic.mac1609_4 NumInternalContention_SCH 0
scalar SlicingScenario.rsu[0].nic.mac1609_4 RemainingPacketsInEDCA_SCH 624687
scalar SlicingScenario.rsu[0].nic.mac1609_4 totalBusyTime_SCH 124.262474

