version 2
run General-285-20190223-14:36:19-12618
attr configname General
attr datetime 20190223-14:36:19
attr experiment General
attr inifile omnetpp.ini
attr iterationvars "$vehicles=80, $msgSizeA=1500B, $serviceMsgInterval=1s"
attr iterationvarsf vehicles=80,msgSizeA=1500B,serviceMsgInterval=1s-
attr measurement "$vehicles=80, $msgSizeA=1500B, $serviceMsgInterval=1s"
attr network com.liborio.slicing.SlicingScenario
attr processid 12618
attr repetition 5
attr replication #5
attr resultdir results
attr runnumber 285
attr seedset 5
itervar msgSizeA 1500B
itervar serviceMsgInterval 1s
itervar vehicles 80
param **.debug false
param **.coreDebug false
param *.playgroundSizeX 1200m
param *.playgroundSizeY 1200m
param *.playgroundSizeZ 50m
param *.annotations.draw true
param *.manager.updateInterval 1s
param *.manager.host "\"localhost\""
param *.manager.port 9999
param *.manager.autoShutdown true
param *.manager.launchConfig "xmldoc(\"highway-\"+string(80)+\".launchd.xml\")"
param *.connectionManager.sendDirect true
param *.connectionManager.maxInterfDist 2600m
param *.connectionManager.drawMaxIntfDist false
param *.rsu[*].applType "\"RSUApp\""
param *.rsu[*].appl.headerLength "80 bit"
param *.rsu[*].appl.sendBeacons false
param *.rsu[*].appl.dataOnSch true
param *.rsu[*].appl.beaconInterval 1s
param *.rsu[*].appl.beaconUserPriority 7
param *.rsu[*].appl.dataUserPriority 5
param *.rsu[*].appl.entMsgADataLengthBytes 1500B
param *.rsu[*].appl.entMsgAUserPriority 4
param *.rsu[*].appl.entMsgAInterval 1s
param *.rsu[*].appl.entMsgBDataLengthBytes 1500B
param *.rsu[*].appl.entMsgBUserPriority 4
param *.rsu[*].appl.entMsgBInterval 1s
param *.rsu[*].nic.mac1609_4.useServiceChannel true
param *.rsu[*].nic.mac1609_4.txPower 20mW
param *.rsu[*].nic.mac1609_4.bitrate 6Mbps
param *.rsu[*].nic.phy80211p.sensitivity -90.00dBm
param *.rsu[0].mobility.x 515.0
param *.rsu[0].mobility.y 25.0
param *.rsu[0].mobility.z 3
param *.node[*].applType "\"VehApp\""
param *.node[*].appl.headerLength "80 bit"
param *.node[*].appl.sendBeacons false
param *.node[*].appl.dataOnSch true
param *.node[*].appl.beaconInterval 1s
param *.node[*].appl.wsaInterval 1s
param *.node[*].appl.entMsgADataLengthBits 1500B
param *.node[*].appl.entMsgAUserPriority 4
param *.node[*].appl.entMsgAInterval 1s
param *.node[*].appl.entMsgBDataLengthBits 1500B
param *.node[*].appl.entMsgBUserPriority 4
param *.node[*].appl.entMsgBInterval 1s
param *.node[*].nic.mac1609_4.useServiceChannel true
param *.node[*].nic.mac1609_4.txPower 20mW
param *.node[*].nic.mac1609_4.bitrate 6Mbps
param *.node[*].nic.phy80211p.sensitivity -90.00dBm
param *.node[*].veinsmobilityType.debug true
param *.node[*].veinsmobility.x 0
param *.node[*].veinsmobility.y 0
param *.node[*].veinsmobility.z 1.895
param *.**.nic.phy80211p.useThermalNoise true
param *.**.nic.phy80211p.thermalNoise -110dBm
param *.**.nic.phy80211p.decider "xmldoc(\"config.xml\")"
param *.**.nic.phy80211p.analogueModels "xmldoc(\"config.xml\")"
param *.**.nic.phy80211p.usePropagationDelay true
param *.**.nic.phy80211p.antenna "xmldoc(\"antenna.xml\", \"/root/Antenna[@id='monopole']\")"
param *.**.nic.phy80211p.collectCollisionStatistics true
param *.**.nic.phy80211p.allowTxDuringRx false

scalar SlicingScenario.node[0].appl txPackets_13 0
scalar SlicingScenario.node[0].appl rxPackets_13 0
scalar SlicingScenario.node[0].appl rxNeighborPackets_13 0
scalar SlicingScenario.node[0].appl meanDelay_13 0
scalar SlicingScenario.node[0].appl meanJitter_13 0
scalar SlicingScenario.node[0].appl meanRxPacketSize_13 0
scalar SlicingScenario.node[0].appl meanTxPacketSize_13 0
scalar SlicingScenario.node[0].appl meanRxThroughput_13 0
scalar SlicingScenario.node[0].appl meanTxThroughput_13 0
scalar SlicingScenario.node[0].appl rxTimeOfService_13 0
scalar SlicingScenario.node[0].appl txTimeOfService_13 0
scalar SlicingScenario.node[0].appl txPackets_40_13 0
scalar SlicingScenario.node[0].appl rxPackets_40_13 83
scalar SlicingScenario.node[0].appl rxNeighborPackets_40_13 1003
scalar SlicingScenario.node[0].appl meanDelay_40_13 0.002072353169
scalar SlicingScenario.node[0].appl meanJitter_40_13 2.531673e-05
scalar SlicingScenario.node[0].appl meanRxPacketSize_40_13 1510
scalar SlicingScenario.node[0].appl meanTxPacketSize_40_13 0
scalar SlicingScenario.node[0].appl meanRxThroughput_40_13 12227.317075617
scalar SlicingScenario.node[0].appl meanTxThroughput_40_13 0
scalar SlicingScenario.node[0].appl rxTimeOfService_40_13 81.999999983596
scalar SlicingScenario.node[0].appl txTimeOfService_40_13 0
scalar SlicingScenario.node[0].nic.phy80211p busyTime 0.042311999999999
scalar SlicingScenario.node[0].nic.phy80211p ncollisions 0
scalar SlicingScenario.node[0].nic.phy80211p UnderSensitivityPackets 228
scalar SlicingScenario.node[0].nic.mac1609_4 ReceivedUnicastPackets_CCH 0
scalar SlicingScenario.node[0].nic.mac1609_4 ReceivedBroadcasts_CCH 0
scalar SlicingScenario.node[0].nic.mac1609_4 SentPackets_CCH 0
scalar SlicingScenario.node[0].nic.mac1609_4 SentAcknowledgements_CCH 0
scalar SlicingScenario.node[0].nic.mac1609_4 SNIRLostPackets_CCH 0
scalar SlicingScenario.node[0].nic.mac1609_4 RXTXLostPackets_CCH 0
scalar SlicingScenario.node[0].nic.mac1609_4 TotalLostPackets_CCH 0
scalar SlicingScenario.node[0].nic.mac1609_4 DroppedPacketsInMac_CCH 0
scalar SlicingScenario.node[0].nic.mac1609_4 TooLittleTime_CCH 0
scalar SlicingScenario.node[0].nic.mac1609_4 TimesIntoBackoff_CCH 0
scalar SlicingScenario.node[0].nic.mac1609_4 SlotsBackoff_CCH 0
scalar SlicingScenario.node[0].nic.mac1609_4 NumInternalContention_CCH 0
scalar SlicingScenario.node[0].nic.mac1609_4 RemainingPacketsInEDCA_CCH 0
scalar SlicingScenario.node[0].nic.mac1609_4 totalBusyTime_CCH 0
scalar SlicingScenario.node[0].nic.mac1609_4 ReceivedUnicastPackets_SCH 0
scalar SlicingScenario.node[0].nic.mac1609_4 ReceivedBroadcasts_SCH 1886
scalar SlicingScenario.node[0].nic.mac1609_4 SentPackets_SCH 0
scalar SlicingScenario.node[0].nic.mac1609_4 SentAcknowledgements_SCH 0
scalar SlicingScenario.node[0].nic.mac1609_4 SNIRLostPackets_SCH 0
scalar SlicingScenario.node[0].nic.mac1609_4 RXTXLostPackets_SCH 0
scalar SlicingScenario.node[0].nic.mac1609_4 TotalLostPackets_SCH 0
scalar SlicingScenario.node[0].nic.mac1609_4 DroppedPacketsInMac_SCH 0
scalar SlicingScenario.node[0].nic.mac1609_4 TooLittleTime_SCH 0
scalar SlicingScenario.node[0].nic.mac1609_4 TimesIntoBackoff_SCH 0
scalar SlicingScenario.node[0].nic.mac1609_4 SlotsBackoff_SCH 0
scalar SlicingScenario.node[0].nic.mac1609_4 NumInternalContention_SCH 0
scalar SlicingScenario.node[0].nic.mac1609_4 RemainingPacketsInEDCA_SCH 0
scalar SlicingScenario.node[0].nic.mac1609_4 totalBusyTime_SCH 3.892704
scalar SlicingScenario.node[0].veinsmobility startTime 1
scalar SlicingScenario.node[0].veinsmobility totalTime 91
scalar SlicingScenario.node[0].veinsmobility stopTime 93
scalar SlicingScenario.node[0].veinsmobility minSpeed 10.619045258979
scalar SlicingScenario.node[0].veinsmobility maxSpeed 11.105039155125
scalar SlicingScenario.node[0].veinsmobility totalDistance 979.22504849792
scalar SlicingScenario.node[0].veinsmobility totalCO2Emission 159.20700092286
scalar SlicingScenario.node[1].appl txPackets_19 0
scalar SlicingScenario.node[1].appl rxPackets_19 0
scalar SlicingScenario.node[1].appl rxNeighborPackets_19 0
scalar SlicingScenario.node[1].appl meanDelay_19 0
scalar SlicingScenario.node[1].appl meanJitter_19 0
scalar SlicingScenario.node[1].appl meanRxPacketSize_19 0
scalar SlicingScenario.node[1].appl meanTxPacketSize_19 0
scalar SlicingScenario.node[1].appl meanRxThroughput_19 0
scalar SlicingScenario.node[1].appl meanTxThroughput_19 0
scalar SlicingScenario.node[1].appl rxTimeOfService_19 0
scalar SlicingScenario.node[1].appl txTimeOfService_19 0
scalar SlicingScenario.node[1].appl txPackets_41_19 0
scalar SlicingScenario.node[1].appl rxPackets_41_19 83
scalar SlicingScenario.node[1].appl rxNeighborPackets_41_19 735
scalar SlicingScenario.node[1].appl meanDelay_41_19 0.00207265611
scalar SlicingScenario.node[1].appl meanJitter_41_19 2.5548821e-05
scalar SlicingScenario.node[1].appl meanRxPacketSize_41_19 1510
scalar SlicingScenario.node[1].appl meanTxPacketSize_41_19 0
scalar SlicingScenario.node[1].appl meanRxThroughput_41_19 12227.316628361
scalar SlicingScenario.node[1].appl meanTxThroughput_41_19 0
scalar SlicingScenario.node[1].appl rxTimeOfService_41_19 82.000002983025
scalar SlicingScenario.node[1].appl txTimeOfService_41_19 0
scalar SlicingScenario.node[1].nic.phy80211p busyTime 0.043254260869564
scalar SlicingScenario.node[1].nic.phy80211p ncollisions 0
scalar SlicingScenario.node[1].nic.phy80211p UnderSensitivityPackets 232
scalar SlicingScenario.node[1].nic.mac1609_4 ReceivedUnicastPackets_CCH 0
scalar SlicingScenario.node[1].nic.mac1609_4 ReceivedBroadcasts_CCH 0
scalar SlicingScenario.node[1].nic.mac1609_4 SentPackets_CCH 0
scalar SlicingScenario.node[1].nic.mac1609_4 SentAcknowledgements_CCH 0
scalar SlicingScenario.node[1].nic.mac1609_4 SNIRLostPackets_CCH 0
scalar SlicingScenario.node[1].nic.mac1609_4 RXTXLostPackets_CCH 0
scalar SlicingScenario.node[1].nic.mac1609_4 TotalLostPackets_CCH 0
scalar SlicingScenario.node[1].nic.mac1609_4 DroppedPacketsInMac_CCH 0
scalar SlicingScenario.node[1].nic.mac1609_4 TooLittleTime_CCH 0
scalar SlicingScenario.node[1].nic.mac1609_4 TimesIntoBackoff_CCH 0
scalar SlicingScenario.node[1].nic.mac1609_4 SlotsBackoff_CCH 0
scalar SlicingScenario.node[1].nic.mac1609_4 NumInternalContention_CCH 0
scalar SlicingScenario.node[1].nic.mac1609_4 RemainingPacketsInEDCA_CCH 0
scalar SlicingScenario.node[1].nic.mac1609_4 totalBusyTime_CCH 0
scalar SlicingScenario.node[1].nic.mac1609_4 ReceivedUnicastPackets_SCH 0
scalar SlicingScenario.node[1].nic.mac1609_4 ReceivedBroadcasts_SCH 1928
scalar SlicingScenario.node[1].nic.mac1609_4 SentPackets_SCH 0
scalar SlicingScenario.node[1].nic.mac1609_4 SentAcknowledgements_SCH 0
scalar SlicingScenario.node[1].nic.mac1609_4 SNIRLostPackets_SCH 0
scalar SlicingScenario.node[1].nic.mac1609_4 RXTXLostPackets_SCH 0
scalar SlicingScenario.node[1].nic.mac1609_4 TotalLostPackets_SCH 0
scalar SlicingScenario.node[1].nic.mac1609_4 DroppedPacketsInMac_SCH 0
scalar SlicingScenario.node[1].nic.mac1609_4 TooLittleTime_SCH 0
scalar SlicingScenario.node[1].nic.mac1609_4 TimesIntoBackoff_SCH 0
scalar SlicingScenario.node[1].nic.mac1609_4 SlotsBackoff_SCH 0
scalar SlicingScenario.node[1].nic.mac1609_4 NumInternalContention_SCH 0
scalar SlicingScenario.node[1].nic.mac1609_4 RemainingPacketsInEDCA_SCH 0
scalar SlicingScenario.node[1].nic.mac1609_4 totalBusyTime_SCH 3.979392
scalar SlicingScenario.node[1].veinsmobility startTime 2
scalar SlicingScenario.node[1].veinsmobility totalTime 91
scalar SlicingScenario.node[1].veinsmobility stopTime 94
scalar SlicingScenario.node[1].veinsmobility minSpeed 10.621718017515
scalar SlicingScenario.node[1].veinsmobility maxSpeed 11.10667017872
scalar SlicingScenario.node[1].veinsmobility totalDistance 978.39395736736
scalar SlicingScenario.node[1].veinsmobility totalCO2Emission 157.28000415623
scalar SlicingScenario.node[2].appl txPackets_25 0
scalar SlicingScenario.node[2].appl rxPackets_25 0
scalar SlicingScenario.node[2].appl rxNeighborPackets_25 0
scalar SlicingScenario.node[2].appl meanDelay_25 0
scalar SlicingScenario.node[2].appl meanJitter_25 0
scalar SlicingScenario.node[2].appl meanRxPacketSize_25 0
scalar SlicingScenario.node[2].appl meanTxPacketSize_25 0
scalar SlicingScenario.node[2].appl meanRxThroughput_25 0
scalar SlicingScenario.node[2].appl meanTxThroughput_25 0
scalar SlicingScenario.node[2].appl rxTimeOfService_25 0
scalar SlicingScenario.node[2].appl txTimeOfService_25 0
scalar SlicingScenario.node[2].appl txPackets_40_25 0
scalar SlicingScenario.node[2].appl rxPackets_40_25 83
scalar SlicingScenario.node[2].appl rxNeighborPackets_40_25 1050
scalar SlicingScenario.node[2].appl meanDelay_40_25 0.002066839548
scalar SlicingScenario.node[2].appl meanJitter_40_25 2.5457671e-05
scalar SlicingScenario.node[2].appl meanRxPacketSize_40_25 1510
scalar SlicingScenario.node[2].appl meanTxPacketSize_40_25 0
scalar SlicingScenario.node[2].appl meanRxThroughput_40_25 12227.31782076
scalar SlicingScenario.node[2].appl meanTxThroughput_40_25 0
scalar SlicingScenario.node[2].appl rxTimeOfService_40_25 81.999994986445
scalar SlicingScenario.node[2].appl txTimeOfService_40_25 0
scalar SlicingScenario.node[2].nic.phy80211p busyTime 0.04417408695652
scalar SlicingScenario.node[2].nic.phy80211p ncollisions 0
scalar SlicingScenario.node[2].nic.phy80211p UnderSensitivityPackets 237
scalar SlicingScenario.node[2].nic.mac1609_4 ReceivedUnicastPackets_CCH 0
scalar SlicingScenario.node[2].nic.mac1609_4 ReceivedBroadcasts_CCH 0
scalar SlicingScenario.node[2].nic.mac1609_4 SentPackets_CCH 0
scalar SlicingScenario.node[2].nic.mac1609_4 SentAcknowledgements_CCH 0
scalar SlicingScenario.node[2].nic.mac1609_4 SNIRLostPackets_CCH 0
scalar SlicingScenario.node[2].nic.mac1609_4 RXTXLostPackets_CCH 0
scalar SlicingScenario.node[2].nic.mac1609_4 TotalLostPackets_CCH 0
scalar SlicingScenario.node[2].nic.mac1609_4 DroppedPacketsInMac_CCH 0
scalar SlicingScenario.node[2].nic.mac1609_4 TooLittleTime_CCH 0
scalar SlicingScenario.node[2].nic.mac1609_4 TimesIntoBackoff_CCH 0
scalar SlicingScenario.node[2].nic.mac1609_4 SlotsBackoff_CCH 0
scalar SlicingScenario.node[2].nic.mac1609_4 NumInternalContention_CCH 0
scalar SlicingScenario.node[2].nic.mac1609_4 RemainingPacketsInEDCA_CCH 0
scalar SlicingScenario.node[2].nic.mac1609_4 totalBusyTime_CCH 0
scalar SlicingScenario.node[2].nic.mac1609_4 ReceivedUnicastPackets_SCH 0
scalar SlicingScenario.node[2].nic.mac1609_4 ReceivedBroadcasts_SCH 1969
scalar SlicingScenario.node[2].nic.mac1609_4 SentPackets_SCH 0
scalar SlicingScenario.node[2].nic.mac1609_4 SentAcknowledgements_SCH 0
scalar SlicingScenario.node[2].nic.mac1609_4 SNIRLostPackets_SCH 0
scalar SlicingScenario.node[2].nic.mac1609_4 RXTXLostPackets_SCH 0
scalar SlicingScenario.node[2].nic.mac1609_4 TotalLostPackets_SCH 0
scalar SlicingScenario.node[2].nic.mac1609_4 DroppedPacketsInMac_SCH 0
scalar SlicingScenario.node[2].nic.mac1609_4 TooLittleTime_SCH 0
scalar SlicingScenario.node[2].nic.mac1609_4 TimesIntoBackoff_SCH 0
scalar SlicingScenario.node[2].nic.mac1609_4 SlotsBackoff_SCH 0
scalar SlicingScenario.node[2].nic.mac1609_4 NumInternalContention_SCH 0
scalar SlicingScenario.node[2].nic.mac1609_4 RemainingPacketsInEDCA_SCH 0
scalar SlicingScenario.node[2].nic.mac1609_4 totalBusyTime_SCH 4.064016
scalar SlicingScenario.node[2].veinsmobility startTime 3
scalar SlicingScenario.node[2].veinsmobility totalTime 91
scalar SlicingScenario.node[2].veinsmobility stopTime 95
scalar SlicingScenario.node[2].veinsmobility minSpeed 10.612496766159
scalar SlicingScenario.node[2].veinsmobility maxSpeed 11.108904049979
scalar SlicingScenario.node[2].veinsmobility totalDistance 979.96945438893
scalar SlicingScenario.node[2].veinsmobility totalCO2Emission 158.18598463885
scalar SlicingScenario.node[3].appl txPackets_31 0
scalar SlicingScenario.node[3].appl rxPackets_31 0
scalar SlicingScenario.node[3].appl rxNeighborPackets_31 0
scalar SlicingScenario.node[3].appl meanDelay_31 0
scalar SlicingScenario.node[3].appl meanJitter_31 0
scalar SlicingScenario.node[3].appl meanRxPacketSize_31 0
scalar SlicingScenario.node[3].appl meanTxPacketSize_31 0
scalar SlicingScenario.node[3].appl meanRxThroughput_31 0
scalar SlicingScenario.node[3].appl meanTxThroughput_31 0
scalar SlicingScenario.node[3].appl rxTimeOfService_31 0
scalar SlicingScenario.node[3].appl txTimeOfService_31 0
scalar SlicingScenario.node[3].appl txPackets_40_31 0
scalar SlicingScenario.node[3].appl rxPackets_40_31 83
scalar SlicingScenario.node[3].appl rxNeighborPackets_40_31 1073
scalar SlicingScenario.node[3].appl meanDelay_40_31 0.00354697858
scalar SlicingScenario.node[3].appl meanJitter_40_31 7.910114e-05
scalar SlicingScenario.node[3].appl meanRxPacketSize_40_31 1510
scalar SlicingScenario.node[3].appl meanTxPacketSize_40_31 0
scalar SlicingScenario.node[3].appl meanRxThroughput_40_31 12227.089682269
scalar SlicingScenario.node[3].appl meanTxThroughput_40_31 0
scalar SlicingScenario.node[3].appl rxTimeOfService_40_31 82.001524978911
scalar SlicingScenario.node[3].appl txTimeOfService_40_31 0
scalar SlicingScenario.node[3].nic.phy80211p busyTime 0.045116347826085
scalar SlicingScenario.node[3].nic.phy80211p ncollisions 0
scalar SlicingScenario.node[3].nic.phy80211p UnderSensitivityPackets 241
scalar SlicingScenario.node[3].nic.mac1609_4 ReceivedUnicastPackets_CCH 0
scalar SlicingScenario.node[3].nic.mac1609_4 ReceivedBroadcasts_CCH 0
scalar SlicingScenario.node[3].nic.mac1609_4 SentPackets_CCH 0
scalar SlicingScenario.node[3].nic.mac1609_4 SentAcknowledgements_CCH 0
scalar SlicingScenario.node[3].nic.mac1609_4 SNIRLostPackets_CCH 0
scalar SlicingScenario.node[3].nic.mac1609_4 RXTXLostPackets_CCH 0
scalar SlicingScenario.node[3].nic.mac1609_4 TotalLostPackets_CCH 0
scalar SlicingScenario.node[3].nic.mac1609_4 DroppedPacketsInMac_CCH 0
scalar SlicingScenario.node[3].nic.mac1609_4 TooLittleTime_CCH 0
scalar SlicingScenario.node[3].nic.mac1609_4 TimesIntoBackoff_CCH 0
scalar SlicingScenario.node[3].nic.mac1609_4 SlotsBackoff_CCH 0
scalar SlicingScenario.node[3].nic.mac1609_4 NumInternalContention_CCH 0
scalar SlicingScenario.node[3].nic.mac1609_4 RemainingPacketsInEDCA_CCH 0
scalar SlicingScenario.node[3].nic.mac1609_4 totalBusyTime_CCH 0
scalar SlicingScenario.node[3].nic.mac1609_4 ReceivedUnicastPackets_SCH 0
scalar SlicingScenario.node[3].nic.mac1609_4 ReceivedBroadcasts_SCH 2011
scalar SlicingScenario.node[3].nic.mac1609_4 SentPackets_SCH 0
scalar SlicingScenario.node[3].nic.mac1609_4 SentAcknowledgements_SCH 0
scalar SlicingScenario.node[3].nic.mac1609_4 SNIRLostPackets_SCH 0
scalar SlicingScenario.node[3].nic.mac1609_4 RXTXLostPackets_SCH 0
scalar SlicingScenario.node[3].nic.mac1609_4 TotalLostPackets_SCH 0
scalar SlicingScenario.node[3].nic.mac1609_4 DroppedPacketsInMac_SCH 0
scalar SlicingScenario.node[3].nic.mac1609_4 TooLittleTime_SCH 0
scalar SlicingScenario.node[3].nic.mac1609_4 TimesIntoBackoff_SCH 0
scalar SlicingScenario.node[3].nic.mac1609_4 SlotsBackoff_SCH 0
scalar SlicingScenario.node[3].nic.mac1609_4 NumInternalContention_SCH 0
scalar SlicingScenario.node[3].nic.mac1609_4 RemainingPacketsInEDCA_SCH 0
scalar SlicingScenario.node[3].nic.mac1609_4 totalBusyTime_SCH 4.150704
scalar SlicingScenario.node[3].veinsmobility startTime 4
scalar SlicingScenario.node[3].veinsmobility totalTime 91
scalar SlicingScenario.node[3].veinsmobility stopTime 96
scalar SlicingScenario.node[3].veinsmobility minSpeed 10.61386096607
scalar SlicingScenario.node[3].veinsmobility maxSpeed 11.107378706466
scalar SlicingScenario.node[3].veinsmobility totalDistance 977.831704536
scalar SlicingScenario.node[3].veinsmobility totalCO2Emission 160.23721891209
scalar SlicingScenario.node[4].appl txPackets_37 0
scalar SlicingScenario.node[4].appl rxPackets_37 0
scalar SlicingScenario.node[4].appl rxNeighborPackets_37 0
scalar SlicingScenario.node[4].appl meanDelay_37 0
scalar SlicingScenario.node[4].appl meanJitter_37 0
scalar SlicingScenario.node[4].appl meanRxPacketSize_37 0
scalar SlicingScenario.node[4].appl meanTxPacketSize_37 0
scalar SlicingScenario.node[4].appl meanRxThroughput_37 0
scalar SlicingScenario.node[4].appl meanTxThroughput_37 0
scalar SlicingScenario.node[4].appl rxTimeOfService_37 0
scalar SlicingScenario.node[4].appl txTimeOfService_37 0
scalar SlicingScenario.node[4].appl txPackets_41_37 0
scalar SlicingScenario.node[4].appl rxPackets_41_37 81
scalar SlicingScenario.node[4].appl rxNeighborPackets_41_37 793
scalar SlicingScenario.node[4].appl meanDelay_41_37 0.002074797019
scalar SlicingScenario.node[4].appl meanJitter_41_37 2.5978667e-05
scalar SlicingScenario.node[4].appl meanRxPacketSize_41_37 1510
scalar SlicingScenario.node[4].appl meanTxPacketSize_41_37 0
scalar SlicingScenario.node[4].appl meanRxThroughput_41_37 12230.999990894
scalar SlicingScenario.node[4].appl meanTxThroughput_41_37 0
scalar SlicingScenario.node[4].appl rxTimeOfService_41_37 80.000000059562
scalar SlicingScenario.node[4].appl txTimeOfService_41_37 0
scalar SlicingScenario.node[4].nic.phy80211p busyTime 0.046036173913042
scalar SlicingScenario.node[4].nic.phy80211p ncollisions 0
scalar SlicingScenario.node[4].nic.phy80211p UnderSensitivityPackets 246
scalar SlicingScenario.node[4].nic.mac1609_4 ReceivedUnicastPackets_CCH 0
scalar SlicingScenario.node[4].nic.mac1609_4 ReceivedBroadcasts_CCH 0
scalar SlicingScenario.node[4].nic.mac1609_4 SentPackets_CCH 0
scalar SlicingScenario.node[4].nic.mac1609_4 SentAcknowledgements_CCH 0
scalar SlicingScenario.node[4].nic.mac1609_4 SNIRLostPackets_CCH 0
scalar SlicingScenario.node[4].nic.mac1609_4 RXTXLostPackets_CCH 0
scalar SlicingScenario.node[4].nic.mac1609_4 TotalLostPackets_CCH 0
scalar SlicingScenario.node[4].nic.mac1609_4 DroppedPacketsInMac_CCH 0
scalar SlicingScenario.node[4].nic.mac1609_4 TooLittleTime_CCH 0
scalar SlicingScenario.node[4].nic.mac1609_4 TimesIntoBackoff_CCH 0
scalar SlicingScenario.node[4].nic.mac1609_4 SlotsBackoff_CCH 0
scalar SlicingScenario.node[4].nic.mac1609_4 NumInternalContention_CCH 0
scalar SlicingScenario.node[4].nic.mac1609_4 RemainingPacketsInEDCA_CCH 0
scalar SlicingScenario.node[4].nic.mac1609_4 totalBusyTime_CCH 0
scalar SlicingScenario.node[4].nic.mac1609_4 ReceivedUnicastPackets_SCH 0
scalar SlicingScenario.node[4].nic.mac1609_4 ReceivedBroadcasts_SCH 2052
scalar SlicingScenario.node[4].nic.mac1609_4 SentPackets_SCH 0
scalar SlicingScenario.node[4].nic.mac1609_4 SentAcknowledgements_SCH 0
scalar SlicingScenario.node[4].nic.mac1609_4 SNIRLostPackets_SCH 0
scalar SlicingScenario.node[4].nic.mac1609_4 RXTXLostPackets_SCH 0
scalar SlicingScenario.node[4].nic.mac1609_4 TotalLostPackets_SCH 0
scalar SlicingScenario.node[4].nic.mac1609_4 DroppedPacketsInMac_SCH 0
scalar SlicingScenario.node[4].nic.mac1609_4 TooLittleTime_SCH 0
scalar SlicingScenario.node[4].nic.mac1609_4 TimesIntoBackoff_SCH 0
scalar SlicingScenario.node[4].nic.mac1609_4 SlotsBackoff_SCH 0
scalar SlicingScenario.node[4].nic.mac1609_4 NumInternalContention_SCH 0
scalar SlicingScenario.node[4].nic.mac1609_4 RemainingPacketsInEDCA_SCH 0
scalar SlicingScenario.node[4].nic.mac1609_4 totalBusyTime_SCH 4.235328
scalar SlicingScenario.node[4].veinsmobility startTime 5
scalar SlicingScenario.node[4].veinsmobility totalTime 91
scalar SlicingScenario.node[4].veinsmobility stopTime 97
scalar SlicingScenario.node[4].veinsmobility minSpeed 10.631049648989
scalar SlicingScenario.node[4].veinsmobility maxSpeed 11.107020139825
scalar SlicingScenario.node[4].veinsmobility totalDistance 979.95902216296
scalar SlicingScenario.node[4].veinsmobility totalCO2Emission 158.12751150185
scalar SlicingScenario.node[5].appl txPackets_43 0
scalar SlicingScenario.node[5].appl rxPackets_43 0
scalar SlicingScenario.node[5].appl rxNeighborPackets_43 0
scalar SlicingScenario.node[5].appl meanDelay_43 0
scalar SlicingScenario.node[5].appl meanJitter_43 0
scalar SlicingScenario.node[5].appl meanRxPacketSize_43 0
scalar SlicingScenario.node[5].appl meanTxPacketSize_43 0
scalar SlicingScenario.node[5].appl meanRxThroughput_43 0
scalar SlicingScenario.node[5].appl meanTxThroughput_43 0
scalar SlicingScenario.node[5].appl rxTimeOfService_43 0
scalar SlicingScenario.node[5].appl txTimeOfService_43 0
scalar SlicingScenario.node[5].appl txPackets_40_43 0
scalar SlicingScenario.node[5].appl rxPackets_40_43 81
scalar SlicingScenario.node[5].appl rxNeighborPackets_40_43 1120
scalar SlicingScenario.node[5].appl meanDelay_40_43 0.002071376509
scalar SlicingScenario.node[5].appl meanJitter_40_43 2.6116161e-05
scalar SlicingScenario.node[5].appl meanRxPacketSize_40_43 1510
scalar SlicingScenario.node[5].appl meanTxPacketSize_40_43 0
scalar SlicingScenario.node[5].appl meanRxThroughput_40_43 12231.001367673
scalar SlicingScenario.node[5].appl meanTxThroughput_40_43 0
scalar SlicingScenario.node[5].appl rxTimeOfService_40_43 79.999991054385
scalar SlicingScenario.node[5].appl txTimeOfService_40_43 0
scalar SlicingScenario.node[5].nic.phy80211p busyTime 0.046978434782607
scalar SlicingScenario.node[5].nic.phy80211p ncollisions 0
scalar SlicingScenario.node[5].nic.phy80211p UnderSensitivityPackets 250
scalar SlicingScenario.node[5].nic.mac1609_4 ReceivedUnicastPackets_CCH 0
scalar SlicingScenario.node[5].nic.mac1609_4 ReceivedBroadcasts_CCH 0
scalar SlicingScenario.node[5].nic.mac1609_4 SentPackets_CCH 0
scalar SlicingScenario.node[5].nic.mac1609_4 SentAcknowledgements_CCH 0
scalar SlicingScenario.node[5].nic.mac1609_4 SNIRLostPackets_CCH 0
scalar SlicingScenario.node[5].nic.mac1609_4 RXTXLostPackets_CCH 0
scalar SlicingScenario.node[5].nic.mac1609_4 TotalLostPackets_CCH 0
scalar SlicingScenario.node[5].nic.mac1609_4 DroppedPacketsInMac_CCH 0
scalar SlicingScenario.node[5].nic.mac1609_4 TooLittleTime_CCH 0
scalar SlicingScenario.node[5].nic.mac1609_4 TimesIntoBackoff_CCH 0
scalar SlicingScenario.node[5].nic.mac1609_4 SlotsBackoff_CCH 0
scalar SlicingScenario.node[5].nic.mac1609_4 NumInternalContention_CCH 0
scalar SlicingScenario.node[5].nic.mac1609_4 RemainingPacketsInEDCA_CCH 0
scalar SlicingScenario.node[5].nic.mac1609_4 totalBusyTime_CCH 0
scalar SlicingScenario.node[5].nic.mac1609_4 ReceivedUnicastPackets_SCH 0
scalar SlicingScenario.node[5].nic.mac1609_4 ReceivedBroadcasts_SCH 2094
scalar SlicingScenario.node[5].nic.mac1609_4 SentPackets_SCH 0
scalar SlicingScenario.node[5].nic.mac1609_4 SentAcknowledgements_SCH 0
scalar SlicingScenario.node[5].nic.mac1609_4 SNIRLostPackets_SCH 0
scalar SlicingScenario.node[5].nic.mac1609_4 RXTXLostPackets_SCH 0
scalar SlicingScenario.node[5].nic.mac1609_4 TotalLostPackets_SCH 0
scalar SlicingScenario.node[5].nic.mac1609_4 DroppedPacketsInMac_SCH 0
scalar SlicingScenario.node[5].nic.mac1609_4 TooLittleTime_SCH 0
scalar SlicingScenario.node[5].nic.mac1609_4 TimesIntoBackoff_SCH 0
scalar SlicingScenario.node[5].nic.mac1609_4 SlotsBackoff_SCH 0
scalar SlicingScenario.node[5].nic.mac1609_4 NumInternalContention_SCH 0
scalar SlicingScenario.node[5].nic.mac1609_4 RemainingPacketsInEDCA_SCH 0
scalar SlicingScenario.node[5].nic.mac1609_4 totalBusyTime_SCH 4.322016
scalar SlicingScenario.node[5].veinsmobility startTime 6
scalar SlicingScenario.node[5].veinsmobility totalTime 91
scalar SlicingScenario.node[5].veinsmobility stopTime 98
scalar SlicingScenario.node[5].veinsmobility minSpeed 10.615039002048
scalar SlicingScenario.node[5].veinsmobility maxSpeed 11.109235328054
scalar SlicingScenario.node[5].veinsmobility totalDistance 978.95878741963
scalar SlicingScenario.node[5].veinsmobility totalCO2Emission 159.67647594949
scalar SlicingScenario.node[6].appl txPackets_49 0
scalar SlicingScenario.node[6].appl rxPackets_49 0
scalar SlicingScenario.node[6].appl rxNeighborPackets_49 0
scalar SlicingScenario.node[6].appl meanDelay_49 0
scalar SlicingScenario.node[6].appl meanJitter_49 0
scalar SlicingScenario.node[6].appl meanRxPacketSize_49 0
scalar SlicingScenario.node[6].appl meanTxPacketSize_49 0
scalar SlicingScenario.node[6].appl meanRxThroughput_49 0
scalar SlicingScenario.node[6].appl meanTxThroughput_49 0
scalar SlicingScenario.node[6].appl rxTimeOfService_49 0
scalar SlicingScenario.node[6].appl txTimeOfService_49 0
scalar SlicingScenario.node[6].appl txPackets_41_49 0
scalar SlicingScenario.node[6].appl rxPackets_41_49 80
scalar SlicingScenario.node[6].appl rxNeighborPackets_41_49 832
scalar SlicingScenario.node[6].appl meanDelay_41_49 0.002074221568
scalar SlicingScenario.node[6].appl meanJitter_41_49 2.6301023e-05
scalar SlicingScenario.node[6].appl meanRxPacketSize_41_49 1510
scalar SlicingScenario.node[6].appl meanTxPacketSize_41_49 0
scalar SlicingScenario.node[6].appl meanRxThroughput_41_49 12232.910757988
scalar SlicingScenario.node[6].appl meanTxThroughput_41_49 0
scalar SlicingScenario.node[6].appl rxTimeOfService_41_49 79.00000409706
scalar SlicingScenario.node[6].appl txTimeOfService_41_49 0
scalar SlicingScenario.node[6].nic.phy80211p busyTime 0.047920695652172
scalar SlicingScenario.node[6].nic.phy80211p ncollisions 0
scalar SlicingScenario.node[6].nic.phy80211p UnderSensitivityPackets 254
scalar SlicingScenario.node[6].nic.mac1609_4 ReceivedUnicastPackets_CCH 0
scalar SlicingScenario.node[6].nic.mac1609_4 ReceivedBroadcasts_CCH 0
scalar SlicingScenario.node[6].nic.mac1609_4 SentPackets_CCH 0
scalar SlicingScenario.node[6].nic.mac1609_4 SentAcknowledgements_CCH 0
scalar SlicingScenario.node[6].nic.mac1609_4 SNIRLostPackets_CCH 0
scalar SlicingScenario.node[6].nic.mac1609_4 RXTXLostPackets_CCH 0
scalar SlicingScenario.node[6].nic.mac1609_4 TotalLostPackets_CCH 0
scalar SlicingScenario.node[6].nic.mac1609_4 DroppedPacketsInMac_CCH 0
scalar SlicingScenario.node[6].nic.mac1609_4 TooLittleTime_CCH 0
scalar SlicingScenario.node[6].nic.mac1609_4 TimesIntoBackoff_CCH 0
scalar SlicingScenario.node[6].nic.mac1609_4 SlotsBackoff_CCH 0
scalar SlicingScenario.node[6].nic.mac1609_4 NumInternalContention_CCH 0
scalar SlicingScenario.node[6].nic.mac1609_4 RemainingPacketsInEDCA_CCH 0
scalar SlicingScenario.node[6].nic.mac1609_4 totalBusyTime_CCH 0
scalar SlicingScenario.node[6].nic.mac1609_4 ReceivedUnicastPackets_SCH 0
scalar SlicingScenario.node[6].nic.mac1609_4 ReceivedBroadcasts_SCH 2136
scalar SlicingScenario.node[6].nic.mac1609_4 SentPackets_SCH 0
scalar SlicingScenario.node[6].nic.mac1609_4 SentAcknowledgements_SCH 0
scalar SlicingScenario.node[6].nic.mac1609_4 SNIRLostPackets_SCH 0
scalar SlicingScenario.node[6].nic.mac1609_4 RXTXLostPackets_SCH 0
scalar SlicingScenario.node[6].nic.mac1609_4 TotalLostPackets_SCH 0
scalar SlicingScenario.node[6].nic.mac1609_4 DroppedPacketsInMac_SCH 0
scalar SlicingScenario.node[6].nic.mac1609_4 TooLittleTime_SCH 0
scalar SlicingScenario.node[6].nic.mac1609_4 TimesIntoBackoff_SCH 0
scalar SlicingScenario.node[6].nic.mac1609_4 SlotsBackoff_SCH 0
scalar SlicingScenario.node[6].nic.mac1609_4 NumInternalContention_SCH 0
scalar SlicingScenario.node[6].nic.mac1609_4 RemainingPacketsInEDCA_SCH 0
scalar SlicingScenario.node[6].nic.mac1609_4 totalBusyTime_SCH 4.408704
scalar SlicingScenario.node[6].veinsmobility startTime 7
scalar SlicingScenario.node[6].veinsmobility totalTime 91
scalar SlicingScenario.node[6].veinsmobility stopTime 99
scalar SlicingScenario.node[6].veinsmobility minSpeed 10.616671991665
scalar SlicingScenario.node[6].veinsmobility maxSpeed 11.103426334346
scalar SlicingScenario.node[6].veinsmobility totalDistance 980.82874918281
scalar SlicingScenario.node[6].veinsmobility totalCO2Emission 157.44658758817
scalar SlicingScenario.node[7].appl txPackets_55 0
scalar SlicingScenario.node[7].appl rxPackets_55 0
scalar SlicingScenario.node[7].appl rxNeighborPackets_55 0
scalar SlicingScenario.node[7].appl meanDelay_55 0
scalar SlicingScenario.node[7].appl meanJitter_55 0
scalar SlicingScenario.node[7].appl meanRxPacketSize_55 0
scalar SlicingScenario.node[7].appl meanTxPacketSize_55 0
scalar SlicingScenario.node[7].appl meanRxThroughput_55 0
scalar SlicingScenario.node[7].appl meanTxThroughput_55 0
scalar SlicingScenario.node[7].appl rxTimeOfService_55 0
scalar SlicingScenario.node[7].appl txTimeOfService_55 0
scalar SlicingScenario.node[7].appl txPackets_41_55 0
scalar SlicingScenario.node[7].appl rxPackets_41_55 79
scalar SlicingScenario.node[7].appl rxNeighborPackets_41_55 851
scalar SlicingScenario.node[7].appl meanDelay_41_55 0.004243310363
scalar SlicingScenario.node[7].appl meanJitter_41_55 8.7042103e-05
scalar SlicingScenario.node[7].appl meanRxPacketSize_41_55 1510
scalar SlicingScenario.node[7].appl meanTxPacketSize_41_55 0
scalar SlicingScenario.node[7].appl meanRxThroughput_41_55 12234.865657196
scalar SlicingScenario.node[7].appl meanTxThroughput_41_55 0
scalar SlicingScenario.node[7].appl rxTimeOfService_41_55 78.000039129051
scalar SlicingScenario.node[7].appl txTimeOfService_41_55 0
scalar SlicingScenario.node[7].nic.phy80211p busyTime 0.048862956521737
scalar SlicingScenario.node[7].nic.phy80211p ncollisions 0
scalar SlicingScenario.node[7].nic.phy80211p UnderSensitivityPackets 258
scalar SlicingScenario.node[7].nic.mac1609_4 ReceivedUnicastPackets_CCH 0
scalar SlicingScenario.node[7].nic.mac1609_4 ReceivedBroadcasts_CCH 0
scalar SlicingScenario.node[7].nic.mac1609_4 SentPackets_CCH 0
scalar SlicingScenario.node[7].nic.mac1609_4 SentAcknowledgements_CCH 0
scalar SlicingScenario.node[7].nic.mac1609_4 SNIRLostPackets_CCH 0
scalar SlicingScenario.node[7].nic.mac1609_4 RXTXLostPackets_CCH 0
scalar SlicingScenario.node[7].nic.mac1609_4 TotalLostPackets_CCH 0
scalar SlicingScenario.node[7].nic.mac1609_4 DroppedPacketsInMac_CCH 0
scalar SlicingScenario.node[7].nic.mac1609_4 TooLittleTime_CCH 0
scalar SlicingScenario.node[7].nic.mac1609_4 TimesIntoBackoff_CCH 0
scalar SlicingScenario.node[7].nic.mac1609_4 SlotsBackoff_CCH 0
scalar SlicingScenario.node[7].nic.mac1609_4 NumInternalContention_CCH 0
scalar SlicingScenario.node[7].nic.mac1609_4 RemainingPacketsInEDCA_CCH 0
scalar SlicingScenario.node[7].nic.mac1609_4 totalBusyTime_CCH 0
scalar SlicingScenario.node[7].nic.mac1609_4 ReceivedUnicastPackets_SCH 0
scalar SlicingScenario.node[7].nic.mac1609_4 ReceivedBroadcasts_SCH 2178
scalar SlicingScenario.node[7].nic.mac1609_4 SentPackets_SCH 0
scalar SlicingScenario.node[7].nic.mac1609_4 SentAcknowledgements_SCH 0
scalar SlicingScenario.node[7].nic.mac1609_4 SNIRLostPackets_SCH 0
scalar SlicingScenario.node[7].nic.mac1609_4 RXTXLostPackets_SCH 0
scalar SlicingScenario.node[7].nic.mac1609_4 TotalLostPackets_SCH 0
scalar SlicingScenario.node[7].nic.mac1609_4 DroppedPacketsInMac_SCH 0
scalar SlicingScenario.node[7].nic.mac1609_4 TooLittleTime_SCH 0
scalar SlicingScenario.node[7].nic.mac1609_4 TimesIntoBackoff_SCH 0
scalar SlicingScenario.node[7].nic.mac1609_4 SlotsBackoff_SCH 0
scalar SlicingScenario.node[7].nic.mac1609_4 NumInternalContention_SCH 0
scalar SlicingScenario.node[7].nic.mac1609_4 RemainingPacketsInEDCA_SCH 0
scalar SlicingScenario.node[7].nic.mac1609_4 totalBusyTime_SCH 4.495392
scalar SlicingScenario.node[7].veinsmobility startTime 8
scalar SlicingScenario.node[7].veinsmobility totalTime 91
scalar SlicingScenario.node[7].veinsmobility stopTime 100
scalar SlicingScenario.node[7].veinsmobility minSpeed 10.612666703425
scalar SlicingScenario.node[7].veinsmobility maxSpeed 11.107299801558
scalar SlicingScenario.node[7].veinsmobility totalDistance 980.11144303363
scalar SlicingScenario.node[7].veinsmobility totalCO2Emission 159.182809944
scalar SlicingScenario.node[8].appl txPackets_61 0
scalar SlicingScenario.node[8].appl rxPackets_61 0
scalar SlicingScenario.node[8].appl rxNeighborPackets_61 0
scalar SlicingScenario.node[8].appl meanDelay_61 0
scalar SlicingScenario.node[8].appl meanJitter_61 0
scalar SlicingScenario.node[8].appl meanRxPacketSize_61 0
scalar SlicingScenario.node[8].appl meanTxPacketSize_61 0
scalar SlicingScenario.node[8].appl meanRxThroughput_61 0
scalar SlicingScenario.node[8].appl meanTxThroughput_61 0
scalar SlicingScenario.node[8].appl rxTimeOfService_61 0
scalar SlicingScenario.node[8].appl txTimeOfService_61 0
scalar SlicingScenario.node[8].appl txPackets_40_61 0
scalar SlicingScenario.node[8].appl rxPackets_40_61 78
scalar SlicingScenario.node[8].appl rxNeighborPackets_40_61 1193
scalar SlicingScenario.node[8].appl meanDelay_40_61 0.005424358223
scalar SlicingScenario.node[8].appl meanJitter_40_61 0.000102072931
scalar SlicingScenario.node[8].appl meanRxPacketSize_40_61 1510
scalar SlicingScenario.node[8].appl meanTxPacketSize_40_61 0
scalar SlicingScenario.node[8].appl meanRxThroughput_40_61 12236.8851582
scalar SlicingScenario.node[8].appl meanTxThroughput_40_61 0
scalar SlicingScenario.node[8].appl rxTimeOfService_40_61 76.999987155116
scalar SlicingScenario.node[8].appl txTimeOfService_40_61 0
scalar SlicingScenario.node[8].nic.phy80211p busyTime 0.049782782608694
scalar SlicingScenario.node[8].nic.phy80211p ncollisions 0
scalar SlicingScenario.node[8].nic.phy80211p UnderSensitivityPackets 263
scalar SlicingScenario.node[8].nic.mac1609_4 ReceivedUnicastPackets_CCH 0
scalar SlicingScenario.node[8].nic.mac1609_4 ReceivedBroadcasts_CCH 0
scalar SlicingScenario.node[8].nic.mac1609_4 SentPackets_CCH 0
scalar SlicingScenario.node[8].nic.mac1609_4 SentAcknowledgements_CCH 0
scalar SlicingScenario.node[8].nic.mac1609_4 SNIRLostPackets_CCH 0
scalar SlicingScenario.node[8].nic.mac1609_4 RXTXLostPackets_CCH 0
scalar SlicingScenario.node[8].nic.mac1609_4 TotalLostPackets_CCH 0
scalar SlicingScenario.node[8].nic.mac1609_4 DroppedPacketsInMac_CCH 0
scalar SlicingScenario.node[8].nic.mac1609_4 TooLittleTime_CCH 0
scalar SlicingScenario.node[8].nic.mac1609_4 TimesIntoBackoff_CCH 0
scalar SlicingScenario.node[8].nic.mac1609_4 SlotsBackoff_CCH 0
scalar SlicingScenario.node[8].nic.mac1609_4 NumInternalContention_CCH 0
scalar SlicingScenario.node[8].nic.mac1609_4 RemainingPacketsInEDCA_CCH 0
scalar SlicingScenario.node[8].nic.mac1609_4 totalBusyTime_CCH 0
scalar SlicingScenario.node[8].nic.mac1609_4 ReceivedUnicastPackets_SCH 0
scalar SlicingScenario.node[8].nic.mac1609_4 ReceivedBroadcasts_SCH 2219
scalar SlicingScenario.node[8].nic.mac1609_4 SentPackets_SCH 0
scalar SlicingScenario.node[8].nic.mac1609_4 SentAcknowledgements_SCH 0
scalar SlicingScenario.node[8].nic.mac1609_4 SNIRLostPackets_SCH 0
scalar SlicingScenario.node[8].nic.mac1609_4 RXTXLostPackets_SCH 0
scalar SlicingScenario.node[8].nic.mac1609_4 TotalLostPackets_SCH 0
scalar SlicingScenario.node[8].nic.mac1609_4 DroppedPacketsInMac_SCH 0
scalar SlicingScenario.node[8].nic.mac1609_4 TooLittleTime_SCH 0
scalar SlicingScenario.node[8].nic.mac1609_4 TimesIntoBackoff_SCH 0
scalar SlicingScenario.node[8].nic.mac1609_4 SlotsBackoff_SCH 0
scalar SlicingScenario.node[8].nic.mac1609_4 NumInternalContention_SCH 0
scalar SlicingScenario.node[8].nic.mac1609_4 RemainingPacketsInEDCA_SCH 0
scalar SlicingScenario.node[8].nic.mac1609_4 totalBusyTime_SCH 4.580016
scalar SlicingScenario.node[8].veinsmobility startTime 9
scalar SlicingScenario.node[8].veinsmobility totalTime 91
scalar SlicingScenario.node[8].veinsmobility stopTime 101
scalar SlicingScenario.node[8].veinsmobility minSpeed 10.616678872043
scalar SlicingScenario.node[8].veinsmobility maxSpeed 11.099919262356
scalar SlicingScenario.node[8].veinsmobility totalDistance 976.96121689658
scalar SlicingScenario.node[8].veinsmobility totalCO2Emission 156.76241647082
scalar SlicingScenario.node[9].appl txPackets_67 0
scalar SlicingScenario.node[9].appl rxPackets_67 0
scalar SlicingScenario.node[9].appl rxNeighborPackets_67 0
scalar SlicingScenario.node[9].appl meanDelay_67 0
scalar SlicingScenario.node[9].appl meanJitter_67 0
scalar SlicingScenario.node[9].appl meanRxPacketSize_67 0
scalar SlicingScenario.node[9].appl meanTxPacketSize_67 0
scalar SlicingScenario.node[9].appl meanRxThroughput_67 0
scalar SlicingScenario.node[9].appl meanTxThroughput_67 0
scalar SlicingScenario.node[9].appl rxTimeOfService_67 0
scalar SlicingScenario.node[9].appl txTimeOfService_67 0
scalar SlicingScenario.node[9].appl txPackets_40_67 0
scalar SlicingScenario.node[9].appl rxPackets_40_67 77
scalar SlicingScenario.node[9].appl rxNeighborPackets_40_67 1217
scalar SlicingScenario.node[9].appl meanDelay_40_67 0.002076156937
scalar SlicingScenario.node[9].appl meanJitter_40_67 2.7732e-05
scalar SlicingScenario.node[9].appl meanRxPacketSize_40_67 1510
scalar SlicingScenario.node[9].appl meanTxPacketSize_40_67 0
scalar SlicingScenario.node[9].appl meanRxThroughput_40_67 12238.948947273
scalar SlicingScenario.node[9].appl meanTxThroughput_40_67 0
scalar SlicingScenario.node[9].appl rxTimeOfService_40_67 75.999990195827
scalar SlicingScenario.node[9].appl txTimeOfService_40_67 0
scalar SlicingScenario.node[9].nic.phy80211p busyTime 0.050725043478259
scalar SlicingScenario.node[9].nic.phy80211p ncollisions 0
scalar SlicingScenario.node[9].nic.phy80211p UnderSensitivityPackets 267
scalar SlicingScenario.node[9].nic.mac1609_4 ReceivedUnicastPackets_CCH 0
scalar SlicingScenario.node[9].nic.mac1609_4 ReceivedBroadcasts_CCH 0
scalar SlicingScenario.node[9].nic.mac1609_4 SentPackets_CCH 0
scalar SlicingScenario.node[9].nic.mac1609_4 SentAcknowledgements_CCH 0
scalar SlicingScenario.node[9].nic.mac1609_4 SNIRLostPackets_CCH 0
scalar SlicingScenario.node[9].nic.mac1609_4 RXTXLostPackets_CCH 0
scalar SlicingScenario.node[9].nic.mac1609_4 TotalLostPackets_CCH 0
scalar SlicingScenario.node[9].nic.mac1609_4 DroppedPacketsInMac_CCH 0
scalar SlicingScenario.node[9].nic.mac1609_4 TooLittleTime_CCH 0
scalar SlicingScenario.node[9].nic.mac1609_4 TimesIntoBackoff_CCH 0
scalar SlicingScenario.node[9].nic.mac1609_4 SlotsBackoff_CCH 0
scalar SlicingScenario.node[9].nic.mac1609_4 NumInternalContention_CCH 0
scalar SlicingScenario.node[9].nic.mac1609_4 RemainingPacketsInEDCA_CCH 0
scalar SlicingScenario.node[9].nic.mac1609_4 totalBusyTime_CCH 0
scalar SlicingScenario.node[9].nic.mac1609_4 ReceivedUnicastPackets_SCH 0
scalar SlicingScenario.node[9].nic.mac1609_4 ReceivedBroadcasts_SCH 2261
scalar SlicingScenario.node[9].nic.mac1609_4 SentPackets_SCH 0
scalar SlicingScenario.node[9].nic.mac1609_4 SentAcknowledgements_SCH 0
scalar SlicingScenario.node[9].nic.mac1609_4 SNIRLostPackets_SCH 0
scalar SlicingScenario.node[9].nic.mac1609_4 RXTXLostPackets_SCH 0
scalar SlicingScenario.node[9].nic.mac1609_4 TotalLostPackets_SCH 0
scalar SlicingScenario.node[9].nic.mac1609_4 DroppedPacketsInMac_SCH 0
scalar SlicingScenario.node[9].nic.mac1609_4 TooLittleTime_SCH 0
scalar SlicingScenario.node[9].nic.mac1609_4 TimesIntoBackoff_SCH 0
scalar SlicingScenario.node[9].nic.mac1609_4 SlotsBackoff_SCH 0
scalar SlicingScenario.node[9].nic.mac1609_4 NumInternalContention_SCH 0
scalar SlicingScenario.node[9].nic.mac1609_4 RemainingPacketsInEDCA_SCH 0
scalar SlicingScenario.node[9].nic.mac1609_4 totalBusyTime_SCH 4.666704
scalar SlicingScenario.node[9].veinsmobility startTime 10
scalar SlicingScenario.node[9].veinsmobility totalTime 91
scalar SlicingScenario.node[9].veinsmobility stopTime 102
scalar SlicingScenario.node[9].veinsmobility minSpeed 10.614041833803
scalar SlicingScenario.node[9].veinsmobility maxSpeed 11.105027045836
scalar SlicingScenario.node[9].veinsmobility totalDistance 978.64913765707
scalar SlicingScenario.node[9].veinsmobility totalCO2Emission 158.91484504384
scalar SlicingScenario.node[10].appl txPackets_73 0
scalar SlicingScenario.node[10].appl rxPackets_73 0
scalar SlicingScenario.node[10].appl rxNeighborPackets_73 0
scalar SlicingScenario.node[10].appl meanDelay_73 0
scalar SlicingScenario.node[10].appl meanJitter_73 0
scalar SlicingScenario.node[10].appl meanRxPacketSize_73 0
scalar SlicingScenario.node[10].appl meanTxPacketSize_73 0
scalar SlicingScenario.node[10].appl meanRxThroughput_73 0
scalar SlicingScenario.node[10].appl meanTxThroughput_73 0
scalar SlicingScenario.node[10].appl rxTimeOfService_73 0
scalar SlicingScenario.node[10].appl txTimeOfService_73 0
scalar SlicingScenario.node[10].appl txPackets_41_73 0
scalar SlicingScenario.node[10].appl rxPackets_41_73 76
scalar SlicingScenario.node[10].appl rxNeighborPackets_41_73 909
scalar SlicingScenario.node[10].appl meanDelay_41_73 0.002750674457
scalar SlicingScenario.node[10].appl meanJitter_41_73 6.5997975e-05
scalar SlicingScenario.node[10].appl meanRxPacketSize_41_73 1510
scalar SlicingScenario.node[10].appl meanTxPacketSize_41_73 0
scalar SlicingScenario.node[10].appl meanRxThroughput_41_73 12240.791618419
scalar SlicingScenario.node[10].appl meanTxThroughput_41_73 0
scalar SlicingScenario.node[10].appl rxTimeOfService_41_73 75.001685235662
scalar SlicingScenario.node[10].appl txTimeOfService_41_73 0
scalar SlicingScenario.node[10].nic.phy80211p busyTime 0.051644869565215
scalar SlicingScenario.node[10].nic.phy80211p ncollisions 0
scalar SlicingScenario.node[10].nic.phy80211p UnderSensitivityPackets 273
scalar SlicingScenario.node[10].nic.mac1609_4 ReceivedUnicastPackets_CCH 0
scalar SlicingScenario.node[10].nic.mac1609_4 ReceivedBroadcasts_CCH 0
scalar SlicingScenario.node[10].nic.mac1609_4 SentPackets_CCH 0
scalar SlicingScenario.node[10].nic.mac1609_4 SentAcknowledgements_CCH 0
scalar SlicingScenario.node[10].nic.mac1609_4 SNIRLostPackets_CCH 0
scalar SlicingScenario.node[10].nic.mac1609_4 RXTXLostPackets_CCH 0
scalar SlicingScenario.node[10].nic.mac1609_4 TotalLostPackets_CCH 0
scalar SlicingScenario.node[10].nic.mac1609_4 DroppedPacketsInMac_CCH 0
scalar SlicingScenario.node[10].nic.mac1609_4 TooLittleTime_CCH 0
scalar SlicingScenario.node[10].nic.mac1609_4 TimesIntoBackoff_CCH 0
scalar SlicingScenario.node[10].nic.mac1609_4 SlotsBackoff_CCH 0
scalar SlicingScenario.node[10].nic.mac1609_4 NumInternalContention_CCH 0
scalar SlicingScenario.node[10].nic.mac1609_4 RemainingPacketsInEDCA_CCH 0
scalar SlicingScenario.node[10].nic.mac1609_4 totalBusyTime_CCH 0
scalar SlicingScenario.node[10].nic.mac1609_4 ReceivedUnicastPackets_SCH 0
scalar SlicingScenario.node[10].nic.mac1609_4 ReceivedBroadcasts_SCH 2302
scalar SlicingScenario.node[10].nic.mac1609_4 SentPackets_SCH 0
scalar SlicingScenario.node[10].nic.mac1609_4 SentAcknowledgements_SCH 0
scalar SlicingScenario.node[10].nic.mac1609_4 SNIRLostPackets_SCH 0
scalar SlicingScenario.node[10].nic.mac1609_4 RXTXLostPackets_SCH 0
scalar SlicingScenario.node[10].nic.mac1609_4 TotalLostPackets_SCH 0
scalar SlicingScenario.node[10].nic.mac1609_4 DroppedPacketsInMac_SCH 0
scalar SlicingScenario.node[10].nic.mac1609_4 TooLittleTime_SCH 0
scalar SlicingScenario.node[10].nic.mac1609_4 TimesIntoBackoff_SCH 0
scalar SlicingScenario.node[10].nic.mac1609_4 SlotsBackoff_SCH 0
scalar SlicingScenario.node[10].nic.mac1609_4 NumInternalContention_SCH 0
scalar SlicingScenario.node[10].nic.mac1609_4 RemainingPacketsInEDCA_SCH 0
scalar SlicingScenario.node[10].nic.mac1609_4 totalBusyTime_SCH 4.751328
scalar SlicingScenario.node[10].veinsmobility startTime 11
scalar SlicingScenario.node[10].veinsmobility totalTime 91
scalar SlicingScenario.node[10].veinsmobility stopTime 103
scalar SlicingScenario.node[10].veinsmobility minSpeed 10.614203574266
scalar SlicingScenario.node[10].veinsmobility maxSpeed 11.102431113613
scalar SlicingScenario.node[10].veinsmobility totalDistance 978.60043408718
scalar SlicingScenario.node[10].veinsmobility totalCO2Emission 156.67763283748
scalar SlicingScenario.node[11].appl txPackets_79 0
scalar SlicingScenario.node[11].appl rxPackets_79 0
scalar SlicingScenario.node[11].appl rxNeighborPackets_79 0
scalar SlicingScenario.node[11].appl meanDelay_79 0
scalar SlicingScenario.node[11].appl meanJitter_79 0
scalar SlicingScenario.node[11].appl meanRxPacketSize_79 0
scalar SlicingScenario.node[11].appl meanTxPacketSize_79 0
scalar SlicingScenario.node[11].appl meanRxThroughput_79 0
scalar SlicingScenario.node[11].appl meanTxThroughput_79 0
scalar SlicingScenario.node[11].appl rxTimeOfService_79 0
scalar SlicingScenario.node[11].appl txTimeOfService_79 0
scalar SlicingScenario.node[11].appl txPackets_40_79 0
scalar SlicingScenario.node[11].appl rxPackets_40_79 75
scalar SlicingScenario.node[11].appl rxNeighborPackets_40_79 1265
scalar SlicingScenario.node[11].appl meanDelay_40_79 0.002138038549
scalar SlicingScenario.node[11].appl meanJitter_40_79 4.1891238e-05
scalar SlicingScenario.node[11].appl meanRxPacketSize_40_79 1510
scalar SlicingScenario.node[11].appl meanTxPacketSize_40_79 0
scalar SlicingScenario.node[11].appl meanRxThroughput_40_79 12243.11133665
scalar SlicingScenario.node[11].appl meanTxThroughput_40_79 0
scalar SlicingScenario.node[11].appl rxTimeOfService_40_79 74.00079727184
scalar SlicingScenario.node[11].appl txTimeOfService_40_79 0
scalar SlicingScenario.node[11].nic.phy80211p busyTime 0.052587130434781
scalar SlicingScenario.node[11].nic.phy80211p ncollisions 0
scalar SlicingScenario.node[11].nic.phy80211p UnderSensitivityPackets 277
scalar SlicingScenario.node[11].nic.mac1609_4 ReceivedUnicastPackets_CCH 0
scalar SlicingScenario.node[11].nic.mac1609_4 ReceivedBroadcasts_CCH 0
scalar SlicingScenario.node[11].nic.mac1609_4 SentPackets_CCH 0
scalar SlicingScenario.node[11].nic.mac1609_4 SentAcknowledgements_CCH 0
scalar SlicingScenario.node[11].nic.mac1609_4 SNIRLostPackets_CCH 0
scalar SlicingScenario.node[11].nic.mac1609_4 RXTXLostPackets_CCH 0
scalar SlicingScenario.node[11].nic.mac1609_4 TotalLostPackets_CCH 0
scalar SlicingScenario.node[11].nic.mac1609_4 DroppedPacketsInMac_CCH 0
scalar SlicingScenario.node[11].nic.mac1609_4 TooLittleTime_CCH 0
scalar SlicingScenario.node[11].nic.mac1609_4 TimesIntoBackoff_CCH 0
scalar SlicingScenario.node[11].nic.mac1609_4 SlotsBackoff_CCH 0
scalar SlicingScenario.node[11].nic.mac1609_4 NumInternalContention_CCH 0
scalar SlicingScenario.node[11].nic.mac1609_4 RemainingPacketsInEDCA_CCH 0
scalar SlicingScenario.node[11].nic.mac1609_4 totalBusyTime_CCH 0
scalar SlicingScenario.node[11].nic.mac1609_4 ReceivedUnicastPackets_SCH 0
scalar SlicingScenario.node[11].nic.mac1609_4 ReceivedBroadcasts_SCH 2344
scalar SlicingScenario.node[11].nic.mac1609_4 SentPackets_SCH 0
scalar SlicingScenario.node[11].nic.mac1609_4 SentAcknowledgements_SCH 0
scalar SlicingScenario.node[11].nic.mac1609_4 SNIRLostPackets_SCH 0
scalar SlicingScenario.node[11].nic.mac1609_4 RXTXLostPackets_SCH 0
scalar SlicingScenario.node[11].nic.mac1609_4 TotalLostPackets_SCH 0
scalar SlicingScenario.node[11].nic.mac1609_4 DroppedPacketsInMac_SCH 0
scalar SlicingScenario.node[11].nic.mac1609_4 TooLittleTime_SCH 0
scalar SlicingScenario.node[11].nic.mac1609_4 TimesIntoBackoff_SCH 0
scalar SlicingScenario.node[11].nic.mac1609_4 SlotsBackoff_SCH 0
scalar SlicingScenario.node[11].nic.mac1609_4 NumInternalContention_SCH 0
scalar SlicingScenario.node[11].nic.mac1609_4 RemainingPacketsInEDCA_SCH 0
scalar SlicingScenario.node[11].nic.mac1609_4 totalBusyTime_SCH 4.838016
scalar SlicingScenario.node[11].veinsmobility startTime 12
scalar SlicingScenario.node[11].veinsmobility totalTime 91
scalar SlicingScenario.node[11].veinsmobility stopTime 104
scalar SlicingScenario.node[11].veinsmobility minSpeed 10.610028763083
scalar SlicingScenario.node[11].veinsmobility maxSpeed 11.107902043397
scalar SlicingScenario.node[11].veinsmobility totalDistance 980.17684854437
scalar SlicingScenario.node[11].veinsmobility totalCO2Emission 158.27790791917
scalar SlicingScenario.node[12].appl txPackets_85 0
scalar SlicingScenario.node[12].appl rxPackets_85 0
scalar SlicingScenario.node[12].appl rxNeighborPackets_85 0
scalar SlicingScenario.node[12].appl meanDelay_85 0
scalar SlicingScenario.node[12].appl meanJitter_85 0
scalar SlicingScenario.node[12].appl meanRxPacketSize_85 0
scalar SlicingScenario.node[12].appl meanTxPacketSize_85 0
scalar SlicingScenario.node[12].appl meanRxThroughput_85 0
scalar SlicingScenario.node[12].appl meanTxThroughput_85 0
scalar SlicingScenario.node[12].appl rxTimeOfService_85 0
scalar SlicingScenario.node[12].appl txTimeOfService_85 0
scalar SlicingScenario.node[12].appl txPackets_40_85 0
scalar SlicingScenario.node[12].appl rxPackets_40_85 74
scalar SlicingScenario.node[12].appl rxNeighborPackets_40_85 1289
scalar SlicingScenario.node[12].appl meanDelay_40_85 0.002073984389
scalar SlicingScenario.node[12].appl meanJitter_40_85 2.8724292e-05
scalar SlicingScenario.node[12].appl meanRxPacketSize_40_85 1510
scalar SlicingScenario.node[12].appl meanTxPacketSize_40_85 0
scalar SlicingScenario.node[12].appl meanRxThroughput_40_85 12245.479569135
scalar SlicingScenario.node[12].appl meanTxThroughput_40_85 0
scalar SlicingScenario.node[12].appl rxTimeOfService_40_85 72.999999302039
scalar SlicingScenario.node[12].appl txTimeOfService_40_85 0
scalar SlicingScenario.node[12].nic.phy80211p busyTime 0.053506956521737
scalar SlicingScenario.node[12].nic.phy80211p ncollisions 0
scalar SlicingScenario.node[12].nic.phy80211p UnderSensitivityPackets 282
scalar SlicingScenario.node[12].nic.mac1609_4 ReceivedUnicastPackets_CCH 0
scalar SlicingScenario.node[12].nic.mac1609_4 ReceivedBroadcasts_CCH 0
scalar SlicingScenario.node[12].nic.mac1609_4 SentPackets_CCH 0
scalar SlicingScenario.node[12].nic.mac1609_4 SentAcknowledgements_CCH 0
scalar SlicingScenario.node[12].nic.mac1609_4 SNIRLostPackets_CCH 0
scalar SlicingScenario.node[12].nic.mac1609_4 RXTXLostPackets_CCH 0
scalar SlicingScenario.node[12].nic.mac1609_4 TotalLostPackets_CCH 0
scalar SlicingScenario.node[12].nic.mac1609_4 DroppedPacketsInMac_CCH 0
scalar SlicingScenario.node[12].nic.mac1609_4 TooLittleTime_CCH 0
scalar SlicingScenario.node[12].nic.mac1609_4 TimesIntoBackoff_CCH 0
scalar SlicingScenario.node[12].nic.mac1609_4 SlotsBackoff_CCH 0
scalar SlicingScenario.node[12].nic.mac1609_4 NumInternalContention_CCH 0
scalar SlicingScenario.node[12].nic.mac1609_4 RemainingPacketsInEDCA_CCH 0
scalar SlicingScenario.node[12].nic.mac1609_4 totalBusyTime_CCH 0
scalar SlicingScenario.node[12].nic.mac1609_4 ReceivedUnicastPackets_SCH 0
scalar SlicingScenario.node[12].nic.mac1609_4 ReceivedBroadcasts_SCH 2385
scalar SlicingScenario.node[12].nic.mac1609_4 SentPackets_SCH 0
scalar SlicingScenario.node[12].nic.mac1609_4 SentAcknowledgements_SCH 0
scalar SlicingScenario.node[12].nic.mac1609_4 SNIRLostPackets_SCH 0
scalar SlicingScenario.node[12].nic.mac1609_4 RXTXLostPackets_SCH 0
scalar SlicingScenario.node[12].nic.mac1609_4 TotalLostPackets_SCH 0
scalar SlicingScenario.node[12].nic.mac1609_4 DroppedPacketsInMac_SCH 0
scalar SlicingScenario.node[12].nic.mac1609_4 TooLittleTime_SCH 0
scalar SlicingScenario.node[12].nic.mac1609_4 TimesIntoBackoff_SCH 0
scalar SlicingScenario.node[12].nic.mac1609_4 SlotsBackoff_SCH 0
scalar SlicingScenario.node[12].nic.mac1609_4 NumInternalContention_SCH 0
scalar SlicingScenario.node[12].nic.mac1609_4 RemainingPacketsInEDCA_SCH 0
scalar SlicingScenario.node[12].nic.mac1609_4 totalBusyTime_SCH 4.92264
scalar SlicingScenario.node[12].veinsmobility startTime 13
scalar SlicingScenario.node[12].veinsmobility totalTime 91
scalar SlicingScenario.node[12].veinsmobility stopTime 105
scalar SlicingScenario.node[12].veinsmobility minSpeed 10.615927825812
scalar SlicingScenario.node[12].veinsmobility maxSpeed 11.097094887183
scalar SlicingScenario.node[12].veinsmobility totalDistance 977.81632908704
scalar SlicingScenario.node[12].veinsmobility totalCO2Emission 158.77166545446
scalar SlicingScenario.node[13].appl txPackets_91 0
scalar SlicingScenario.node[13].appl rxPackets_91 0
scalar SlicingScenario.node[13].appl rxNeighborPackets_91 0
scalar SlicingScenario.node[13].appl meanDelay_91 0
scalar SlicingScenario.node[13].appl meanJitter_91 0
scalar SlicingScenario.node[13].appl meanRxPacketSize_91 0
scalar SlicingScenario.node[13].appl meanTxPacketSize_91 0
scalar SlicingScenario.node[13].appl meanRxThroughput_91 0
scalar SlicingScenario.node[13].appl meanTxThroughput_91 0
scalar SlicingScenario.node[13].appl rxTimeOfService_91 0
scalar SlicingScenario.node[13].appl txTimeOfService_91 0
scalar SlicingScenario.node[13].appl txPackets_40_91 0
scalar SlicingScenario.node[13].appl rxPackets_40_91 73
scalar SlicingScenario.node[13].appl rxNeighborPackets_40_91 1313
scalar SlicingScenario.node[13].appl meanDelay_40_91 0.002068150906
scalar SlicingScenario.node[13].appl meanJitter_40_91 2.8797412e-05
scalar SlicingScenario.node[13].appl meanRxPacketSize_40_91 1510
scalar SlicingScenario.node[13].appl meanTxPacketSize_40_91 0
scalar SlicingScenario.node[13].appl meanRxThroughput_40_91 12247.777039424
scalar SlicingScenario.node[13].appl meanTxThroughput_40_91 0
scalar SlicingScenario.node[13].appl rxTimeOfService_40_91 72.000004340497
scalar SlicingScenario.node[13].appl txTimeOfService_40_91 0
scalar SlicingScenario.node[13].nic.phy80211p busyTime 0.054449217391302
scalar SlicingScenario.node[13].nic.phy80211p ncollisions 0
scalar SlicingScenario.node[13].nic.phy80211p UnderSensitivityPackets 286
scalar SlicingScenario.node[13].nic.mac1609_4 ReceivedUnicastPackets_CCH 0
scalar SlicingScenario.node[13].nic.mac1609_4 ReceivedBroadcasts_CCH 0
scalar SlicingScenario.node[13].nic.mac1609_4 SentPackets_CCH 0
scalar SlicingScenario.node[13].nic.mac1609_4 SentAcknowledgements_CCH 0
scalar SlicingScenario.node[13].nic.mac1609_4 SNIRLostPackets_CCH 0
scalar SlicingScenario.node[13].nic.mac1609_4 RXTXLostPackets_CCH 0
scalar SlicingScenario.node[13].nic.mac1609_4 TotalLostPackets_CCH 0
scalar SlicingScenario.node[13].nic.mac1609_4 DroppedPacketsInMac_CCH 0
scalar SlicingScenario.node[13].nic.mac1609_4 TooLittleTime_CCH 0
scalar SlicingScenario.node[13].nic.mac1609_4 TimesIntoBackoff_CCH 0
scalar SlicingScenario.node[13].nic.mac1609_4 SlotsBackoff_CCH 0
scalar SlicingScenario.node[13].nic.mac1609_4 NumInternalContention_CCH 0
scalar SlicingScenario.node[13].nic.mac1609_4 RemainingPacketsInEDCA_CCH 0
scalar SlicingScenario.node[13].nic.mac1609_4 totalBusyTime_CCH 0
scalar SlicingScenario.node[13].nic.mac1609_4 ReceivedUnicastPackets_SCH 0
scalar SlicingScenario.node[13].nic.mac1609_4 ReceivedBroadcasts_SCH 2427
scalar SlicingScenario.node[13].nic.mac1609_4 SentPackets_SCH 0
scalar SlicingScenario.node[13].nic.mac1609_4 SentAcknowledgements_SCH 0
scalar SlicingScenario.node[13].nic.mac1609_4 SNIRLostPackets_SCH 0
scalar SlicingScenario.node[13].nic.mac1609_4 RXTXLostPackets_SCH 0
scalar SlicingScenario.node[13].nic.mac1609_4 TotalLostPackets_SCH 0
scalar SlicingScenario.node[13].nic.mac1609_4 DroppedPacketsInMac_SCH 0
scalar SlicingScenario.node[13].nic.mac1609_4 TooLittleTime_SCH 0
scalar SlicingScenario.node[13].nic.mac1609_4 TimesIntoBackoff_SCH 0
scalar SlicingScenario.node[13].nic.mac1609_4 SlotsBackoff_SCH 0
scalar SlicingScenario.node[13].nic.mac1609_4 NumInternalContention_SCH 0
scalar SlicingScenario.node[13].nic.mac1609_4 RemainingPacketsInEDCA_SCH 0
scalar SlicingScenario.node[13].nic.mac1609_4 totalBusyTime_SCH 5.009328
scalar SlicingScenario.node[13].veinsmobility startTime 14
scalar SlicingScenario.node[13].veinsmobility totalTime 91
scalar SlicingScenario.node[13].veinsmobility stopTime 106
scalar SlicingScenario.node[13].veinsmobility minSpeed 10.614411481787
scalar SlicingScenario.node[13].veinsmobility maxSpeed 11.109401505338
scalar SlicingScenario.node[13].veinsmobility totalDistance 979.64110769584
scalar SlicingScenario.node[13].veinsmobility totalCO2Emission 158.64144621909
scalar SlicingScenario.node[14].appl txPackets_97 0
scalar SlicingScenario.node[14].appl rxPackets_97 0
scalar SlicingScenario.node[14].appl rxNeighborPackets_97 0
scalar SlicingScenario.node[14].appl meanDelay_97 0
scalar SlicingScenario.node[14].appl meanJitter_97 0
scalar SlicingScenario.node[14].appl meanRxPacketSize_97 0
scalar SlicingScenario.node[14].appl meanTxPacketSize_97 0
scalar SlicingScenario.node[14].appl meanRxThroughput_97 0
scalar SlicingScenario.node[14].appl meanTxThroughput_97 0
scalar SlicingScenario.node[14].appl rxTimeOfService_97 0
scalar SlicingScenario.node[14].appl txTimeOfService_97 0
scalar SlicingScenario.node[14].appl txPackets_41_97 0
scalar SlicingScenario.node[14].appl rxPackets_41_97 72
scalar SlicingScenario.node[14].appl rxNeighborPackets_41_97 988
scalar SlicingScenario.node[14].appl meanDelay_41_97 0.002071886557
scalar SlicingScenario.node[14].appl meanJitter_41_97 2.963985e-05
scalar SlicingScenario.node[14].appl meanRxPacketSize_41_97 1510
scalar SlicingScenario.node[14].appl meanTxPacketSize_41_97 0
scalar SlicingScenario.node[14].appl meanRxThroughput_41_97 12250.142506198
scalar SlicingScenario.node[14].appl meanTxThroughput_41_97 0
scalar SlicingScenario.node[14].appl rxTimeOfService_41_97 70.999990372352
scalar SlicingScenario.node[14].appl txTimeOfService_41_97 0
scalar SlicingScenario.node[14].nic.phy80211p busyTime 0.055369043478259
scalar SlicingScenario.node[14].nic.phy80211p ncollisions 0
scalar SlicingScenario.node[14].nic.phy80211p UnderSensitivityPackets 291
scalar SlicingScenario.node[14].nic.mac1609_4 ReceivedUnicastPackets_CCH 0
scalar SlicingScenario.node[14].nic.mac1609_4 ReceivedBroadcasts_CCH 0
scalar SlicingScenario.node[14].nic.mac1609_4 SentPackets_CCH 0
scalar SlicingScenario.node[14].nic.mac1609_4 SentAcknowledgements_CCH 0
scalar SlicingScenario.node[14].nic.mac1609_4 SNIRLostPackets_CCH 0
scalar SlicingScenario.node[14].nic.mac1609_4 RXTXLostPackets_CCH 0
scalar SlicingScenario.node[14].nic.mac1609_4 TotalLostPackets_CCH 0
scalar SlicingScenario.node[14].nic.mac1609_4 DroppedPacketsInMac_CCH 0
scalar SlicingScenario.node[14].nic.mac1609_4 TooLittleTime_CCH 0
scalar SlicingScenario.node[14].nic.mac1609_4 TimesIntoBackoff_CCH 0
scalar SlicingScenario.node[14].nic.mac1609_4 SlotsBackoff_CCH 0
scalar SlicingScenario.node[14].nic.mac1609_4 NumInternalContention_CCH 0
scalar SlicingScenario.node[14].nic.mac1609_4 RemainingPacketsInEDCA_CCH 0
scalar SlicingScenario.node[14].nic.mac1609_4 totalBusyTime_CCH 0
scalar SlicingScenario.node[14].nic.mac1609_4 ReceivedUnicastPackets_SCH 0
scalar SlicingScenario.node[14].nic.mac1609_4 ReceivedBroadcasts_SCH 2468
scalar SlicingScenario.node[14].nic.mac1609_4 SentPackets_SCH 0
scalar SlicingScenario.node[14].nic.mac1609_4 SentAcknowledgements_SCH 0
scalar SlicingScenario.node[14].nic.mac1609_4 SNIRLostPackets_SCH 0
scalar SlicingScenario.node[14].nic.mac1609_4 RXTXLostPackets_SCH 0
scalar SlicingScenario.node[14].nic.mac1609_4 TotalLostPackets_SCH 0
scalar SlicingScenario.node[14].nic.mac1609_4 DroppedPacketsInMac_SCH 0
scalar SlicingScenario.node[14].nic.mac1609_4 TooLittleTime_SCH 0
scalar SlicingScenario.node[14].nic.mac1609_4 TimesIntoBackoff_SCH 0
scalar SlicingScenario.node[14].nic.mac1609_4 SlotsBackoff_SCH 0
scalar SlicingScenario.node[14].nic.mac1609_4 NumInternalContention_SCH 0
scalar SlicingScenario.node[14].nic.mac1609_4 RemainingPacketsInEDCA_SCH 0
scalar SlicingScenario.node[14].nic.mac1609_4 totalBusyTime_SCH 5.093952
scalar SlicingScenario.node[14].veinsmobility startTime 15
scalar SlicingScenario.node[14].veinsmobility totalTime 91
scalar SlicingScenario.node[14].veinsmobility stopTime 107
scalar SlicingScenario.node[14].veinsmobility minSpeed 10.6114290564
scalar SlicingScenario.node[14].veinsmobility maxSpeed 11.108781433329
scalar SlicingScenario.node[14].veinsmobility totalDistance 977.98463075632
scalar SlicingScenario.node[14].veinsmobility totalCO2Emission 159.82358532523
scalar SlicingScenario.node[15].appl txPackets_103 0
scalar SlicingScenario.node[15].appl rxPackets_103 0
scalar SlicingScenario.node[15].appl rxNeighborPackets_103 0
scalar SlicingScenario.node[15].appl meanDelay_103 0
scalar SlicingScenario.node[15].appl meanJitter_103 0
scalar SlicingScenario.node[15].appl meanRxPacketSize_103 0
scalar SlicingScenario.node[15].appl meanTxPacketSize_103 0
scalar SlicingScenario.node[15].appl meanRxThroughput_103 0
scalar SlicingScenario.node[15].appl meanTxThroughput_103 0
scalar SlicingScenario.node[15].appl rxTimeOfService_103 0
scalar SlicingScenario.node[15].appl txTimeOfService_103 0
scalar SlicingScenario.node[15].appl txPackets_40_103 0
scalar SlicingScenario.node[15].appl rxPackets_40_103 71
scalar SlicingScenario.node[15].appl rxNeighborPackets_40_103 1360
scalar SlicingScenario.node[15].appl meanDelay_40_103 0.002075439796
scalar SlicingScenario.node[15].appl meanJitter_40_103 2.995869e-05
scalar SlicingScenario.node[15].appl meanRxPacketSize_40_103 1510
scalar SlicingScenario.node[15].appl meanTxPacketSize_40_103 0
scalar SlicingScenario.node[15].appl meanRxThroughput_40_103 12252.570832303
scalar SlicingScenario.node[15].appl meanTxThroughput_40_103 0
scalar SlicingScenario.node[15].appl rxTimeOfService_40_103 70.000003406531
scalar SlicingScenario.node[15].appl txTimeOfService_40_103 0
scalar SlicingScenario.node[15].nic.phy80211p busyTime 0.056311304347824
scalar SlicingScenario.node[15].nic.phy80211p ncollisions 0
scalar SlicingScenario.node[15].nic.phy80211p UnderSensitivityPackets 295
scalar SlicingScenario.node[15].nic.mac1609_4 ReceivedUnicastPackets_CCH 0
scalar SlicingScenario.node[15].nic.mac1609_4 ReceivedBroadcasts_CCH 0
scalar SlicingScenario.node[15].nic.mac1609_4 SentPackets_CCH 0
scalar SlicingScenario.node[15].nic.mac1609_4 SentAcknowledgements_CCH 0
scalar SlicingScenario.node[15].nic.mac1609_4 SNIRLostPackets_CCH 0
scalar SlicingScenario.node[15].nic.mac1609_4 RXTXLostPackets_CCH 0
scalar SlicingScenario.node[15].nic.mac1609_4 TotalLostPackets_CCH 0
scalar SlicingScenario.node[15].nic.mac1609_4 DroppedPacketsInMac_CCH 0
scalar SlicingScenario.node[15].nic.mac1609_4 TooLittleTime_CCH 0
scalar SlicingScenario.node[15].nic.mac1609_4 TimesIntoBackoff_CCH 0
scalar SlicingScenario.node[15].nic.mac1609_4 SlotsBackoff_CCH 0
scalar SlicingScenario.node[15].nic.mac1609_4 NumInternalContention_CCH 0
scalar SlicingScenario.node[15].nic.mac1609_4 RemainingPacketsInEDCA_CCH 0
scalar SlicingScenario.node[15].nic.mac1609_4 totalBusyTime_CCH 0
scalar SlicingScenario.node[15].nic.mac1609_4 ReceivedUnicastPackets_SCH 0
scalar SlicingScenario.node[15].nic.mac1609_4 ReceivedBroadcasts_SCH 2510
scalar SlicingScenario.node[15].nic.mac1609_4 SentPackets_SCH 0
scalar SlicingScenario.node[15].nic.mac1609_4 SentAcknowledgements_SCH 0
scalar SlicingScenario.node[15].nic.mac1609_4 SNIRLostPackets_SCH 0
scalar SlicingScenario.node[15].nic.mac1609_4 RXTXLostPackets_SCH 0
scalar SlicingScenario.node[15].nic.mac1609_4 TotalLostPackets_SCH 0
scalar SlicingScenario.node[15].nic.mac1609_4 DroppedPacketsInMac_SCH 0
scalar SlicingScenario.node[15].nic.mac1609_4 TooLittleTime_SCH 0
scalar SlicingScenario.node[15].nic.mac1609_4 TimesIntoBackoff_SCH 0
scalar SlicingScenario.node[15].nic.mac1609_4 SlotsBackoff_SCH 0
scalar SlicingScenario.node[15].nic.mac1609_4 NumInternalContention_SCH 0
scalar SlicingScenario.node[15].nic.mac1609_4 RemainingPacketsInEDCA_SCH 0
scalar SlicingScenario.node[15].nic.mac1609_4 totalBusyTime_SCH 5.18064
scalar SlicingScenario.node[15].veinsmobility startTime 16
scalar SlicingScenario.node[15].veinsmobility totalTime 91
scalar SlicingScenario.node[15].veinsmobility stopTime 108
scalar SlicingScenario.node[15].veinsmobility minSpeed 10.617823051303
scalar SlicingScenario.node[15].veinsmobility maxSpeed 11.108132604058
scalar SlicingScenario.node[15].veinsmobility totalDistance 977.75061082358
scalar SlicingScenario.node[15].veinsmobility totalCO2Emission 159.9155939865
scalar SlicingScenario.node[16].appl txPackets_109 0
scalar SlicingScenario.node[16].appl rxPackets_109 0
scalar SlicingScenario.node[16].appl rxNeighborPackets_109 0
scalar SlicingScenario.node[16].appl meanDelay_109 0
scalar SlicingScenario.node[16].appl meanJitter_109 0
scalar SlicingScenario.node[16].appl meanRxPacketSize_109 0
scalar SlicingScenario.node[16].appl meanTxPacketSize_109 0
scalar SlicingScenario.node[16].appl meanRxThroughput_109 0
scalar SlicingScenario.node[16].appl meanTxThroughput_109 0
scalar SlicingScenario.node[16].appl rxTimeOfService_109 0
scalar SlicingScenario.node[16].appl txTimeOfService_109 0
scalar SlicingScenario.node[16].appl txPackets_41_109 0
scalar SlicingScenario.node[16].appl rxPackets_41_109 70
scalar SlicingScenario.node[16].appl rxNeighborPackets_41_109 1028
scalar SlicingScenario.node[16].appl meanDelay_41_109 0.002073155328
scalar SlicingScenario.node[16].appl meanJitter_41_109 3.0359118e-05
scalar SlicingScenario.node[16].appl meanRxPacketSize_41_109 1510
scalar SlicingScenario.node[16].appl meanTxPacketSize_41_109 0
scalar SlicingScenario.node[16].appl meanRxThroughput_41_109 12255.072562467
scalar SlicingScenario.node[16].appl meanTxThroughput_41_109 0
scalar SlicingScenario.node[16].appl rxTimeOfService_41_109 68.999999444291
scalar SlicingScenario.node[16].appl txTimeOfService_41_109 0
scalar SlicingScenario.node[16].nic.phy80211p busyTime 0.05723113043478
scalar SlicingScenario.node[16].nic.phy80211p ncollisions 0
scalar SlicingScenario.node[16].nic.phy80211p UnderSensitivityPackets 300
scalar SlicingScenario.node[16].nic.mac1609_4 ReceivedUnicastPackets_CCH 0
scalar SlicingScenario.node[16].nic.mac1609_4 ReceivedBroadcasts_CCH 0
scalar SlicingScenario.node[16].nic.mac1609_4 SentPackets_CCH 0
scalar SlicingScenario.node[16].nic.mac1609_4 SentAcknowledgements_CCH 0
scalar SlicingScenario.node[16].nic.mac1609_4 SNIRLostPackets_CCH 0
scalar SlicingScenario.node[16].nic.mac1609_4 RXTXLostPackets_CCH 0
scalar SlicingScenario.node[16].nic.mac1609_4 TotalLostPackets_CCH 0
scalar SlicingScenario.node[16].nic.mac1609_4 DroppedPacketsInMac_CCH 0
scalar SlicingScenario.node[16].nic.mac1609_4 TooLittleTime_CCH 0
scalar SlicingScenario.node[16].nic.mac1609_4 TimesIntoBackoff_CCH 0
scalar SlicingScenario.node[16].nic.mac1609_4 SlotsBackoff_CCH 0
scalar SlicingScenario.node[16].nic.mac1609_4 NumInternalContention_CCH 0
scalar SlicingScenario.node[16].nic.mac1609_4 RemainingPacketsInEDCA_CCH 0
scalar SlicingScenario.node[16].nic.mac1609_4 totalBusyTime_CCH 0
scalar SlicingScenario.node[16].nic.mac1609_4 ReceivedUnicastPackets_SCH 0
scalar SlicingScenario.node[16].nic.mac1609_4 ReceivedBroadcasts_SCH 2551
scalar SlicingScenario.node[16].nic.mac1609_4 SentPackets_SCH 0
scalar SlicingScenario.node[16].nic.mac1609_4 SentAcknowledgements_SCH 0
scalar SlicingScenario.node[16].nic.mac1609_4 SNIRLostPackets_SCH 0
scalar SlicingScenario.node[16].nic.mac1609_4 RXTXLostPackets_SCH 0
scalar SlicingScenario.node[16].nic.mac1609_4 TotalLostPackets_SCH 0
scalar SlicingScenario.node[16].nic.mac1609_4 DroppedPacketsInMac_SCH 0
scalar SlicingScenario.node[16].nic.mac1609_4 TooLittleTime_SCH 0
scalar SlicingScenario.node[16].nic.mac1609_4 TimesIntoBackoff_SCH 0
scalar SlicingScenario.node[16].nic.mac1609_4 SlotsBackoff_SCH 0
scalar SlicingScenario.node[16].nic.mac1609_4 NumInternalContention_SCH 0
scalar SlicingScenario.node[16].nic.mac1609_4 RemainingPacketsInEDCA_SCH 0
scalar SlicingScenario.node[16].nic.mac1609_4 totalBusyTime_SCH 5.265264
scalar SlicingScenario.node[16].veinsmobility startTime 17
scalar SlicingScenario.node[16].veinsmobility totalTime 91
scalar SlicingScenario.node[16].veinsmobility stopTime 109
scalar SlicingScenario.node[16].veinsmobility minSpeed 10.622250280241
scalar SlicingScenario.node[16].veinsmobility maxSpeed 11.09983869853
scalar SlicingScenario.node[16].veinsmobility totalDistance 978.36384910997
scalar SlicingScenario.node[16].veinsmobility totalCO2Emission 160.14654852591
scalar SlicingScenario.node[17].appl txPackets_115 0
scalar SlicingScenario.node[17].appl rxPackets_115 0
scalar SlicingScenario.node[17].appl rxNeighborPackets_115 0
scalar SlicingScenario.node[17].appl meanDelay_115 0
scalar SlicingScenario.node[17].appl meanJitter_115 0
scalar SlicingScenario.node[17].appl meanRxPacketSize_115 0
scalar SlicingScenario.node[17].appl meanTxPacketSize_115 0
scalar SlicingScenario.node[17].appl meanRxThroughput_115 0
scalar SlicingScenario.node[17].appl meanTxThroughput_115 0
scalar SlicingScenario.node[17].appl rxTimeOfService_115 0
scalar SlicingScenario.node[17].appl txTimeOfService_115 0
scalar SlicingScenario.node[17].appl txPackets_41_115 0
scalar SlicingScenario.node[17].appl rxPackets_41_115 69
scalar SlicingScenario.node[17].appl rxNeighborPackets_41_115 1048
scalar SlicingScenario.node[17].appl meanDelay_41_115 0.002069514565
scalar SlicingScenario.node[17].appl meanJitter_41_115 3.0740925e-05
scalar SlicingScenario.node[17].appl meanRxPacketSize_41_115 1510
scalar SlicingScenario.node[17].appl meanTxPacketSize_41_115 0
scalar SlicingScenario.node[17].appl meanRxThroughput_41_115 12257.647871028
scalar SlicingScenario.node[17].appl meanTxThroughput_41_115 0
scalar SlicingScenario.node[17].appl rxTimeOfService_41_115 67.999995494251
scalar SlicingScenario.node[17].appl txTimeOfService_41_115 0
scalar SlicingScenario.node[17].nic.phy80211p busyTime 0.058173391304345
scalar SlicingScenario.node[17].nic.phy80211p ncollisions 0
scalar SlicingScenario.node[17].nic.phy80211p UnderSensitivityPackets 304
scalar SlicingScenario.node[17].nic.mac1609_4 ReceivedUnicastPackets_CCH 0
scalar SlicingScenario.node[17].nic.mac1609_4 ReceivedBroadcasts_CCH 0
scalar SlicingScenario.node[17].nic.mac1609_4 SentPackets_CCH 0
scalar SlicingScenario.node[17].nic.mac1609_4 SentAcknowledgements_CCH 0
scalar SlicingScenario.node[17].nic.mac1609_4 SNIRLostPackets_CCH 0
scalar SlicingScenario.node[17].nic.mac1609_4 RXTXLostPackets_CCH 0
scalar SlicingScenario.node[17].nic.mac1609_4 TotalLostPackets_CCH 0
scalar SlicingScenario.node[17].nic.mac1609_4 DroppedPacketsInMac_CCH 0
scalar SlicingScenario.node[17].nic.mac1609_4 TooLittleTime_CCH 0
scalar SlicingScenario.node[17].nic.mac1609_4 TimesIntoBackoff_CCH 0
scalar SlicingScenario.node[17].nic.mac1609_4 SlotsBackoff_CCH 0
scalar SlicingScenario.node[17].nic.mac1609_4 NumInternalContention_CCH 0
scalar SlicingScenario.node[17].nic.mac1609_4 RemainingPacketsInEDCA_CCH 0
scalar SlicingScenario.node[17].nic.mac1609_4 totalBusyTime_CCH 0
scalar SlicingScenario.node[17].nic.mac1609_4 ReceivedUnicastPackets_SCH 0
scalar SlicingScenario.node[17].nic.mac1609_4 ReceivedBroadcasts_SCH 2593
scalar SlicingScenario.node[17].nic.mac1609_4 SentPackets_SCH 0
scalar SlicingScenario.node[17].nic.mac1609_4 SentAcknowledgements_SCH 0
scalar SlicingScenario.node[17].nic.mac1609_4 SNIRLostPackets_SCH 0
scalar SlicingScenario.node[17].nic.mac1609_4 RXTXLostPackets_SCH 0
scalar SlicingScenario.node[17].nic.mac1609_4 TotalLostPackets_SCH 0
scalar SlicingScenario.node[17].nic.mac1609_4 DroppedPacketsInMac_SCH 0
scalar SlicingScenario.node[17].nic.mac1609_4 TooLittleTime_SCH 0
scalar SlicingScenario.node[17].nic.mac1609_4 TimesIntoBackoff_SCH 0
scalar SlicingScenario.node[17].nic.mac1609_4 SlotsBackoff_SCH 0
scalar SlicingScenario.node[17].nic.mac1609_4 NumInternalContention_SCH 0
scalar SlicingScenario.node[17].nic.mac1609_4 RemainingPacketsInEDCA_SCH 0
scalar SlicingScenario.node[17].nic.mac1609_4 totalBusyTime_SCH 5.351952
scalar SlicingScenario.node[17].veinsmobility startTime 18
scalar SlicingScenario.node[17].veinsmobility totalTime 91
scalar SlicingScenario.node[17].veinsmobility stopTime 110
scalar SlicingScenario.node[17].veinsmobility minSpeed 10.611394261839
scalar SlicingScenario.node[17].veinsmobility maxSpeed 11.10816007039
scalar SlicingScenario.node[17].veinsmobility totalDistance 980.1200298483
scalar SlicingScenario.node[17].veinsmobility totalCO2Emission 157.25339532015
scalar SlicingScenario.node[18].appl txPackets_121 0
scalar SlicingScenario.node[18].appl rxPackets_121 0
scalar SlicingScenario.node[18].appl rxNeighborPackets_121 0
scalar SlicingScenario.node[18].appl meanDelay_121 0
scalar SlicingScenario.node[18].appl meanJitter_121 0
scalar SlicingScenario.node[18].appl meanRxPacketSize_121 0
scalar SlicingScenario.node[18].appl meanTxPacketSize_121 0
scalar SlicingScenario.node[18].appl meanRxThroughput_121 0
scalar SlicingScenario.node[18].appl meanTxThroughput_121 0
scalar SlicingScenario.node[18].appl rxTimeOfService_121 0
scalar SlicingScenario.node[18].appl txTimeOfService_121 0
scalar SlicingScenario.node[18].appl txPackets_40_121 0
scalar SlicingScenario.node[18].appl rxPackets_40_121 68
scalar SlicingScenario.node[18].appl rxNeighborPackets_40_121 1431
scalar SlicingScenario.node[18].appl meanDelay_40_121 0.002177911012
scalar SlicingScenario.node[18].appl meanJitter_40_121 4.9728143e-05
scalar SlicingScenario.node[18].appl meanRxPacketSize_40_121 1510
scalar SlicingScenario.node[18].appl meanTxPacketSize_40_121 0
scalar SlicingScenario.node[18].appl meanRxThroughput_40_121 12260.091636944
scalar SlicingScenario.node[18].appl meanTxThroughput_40_121 0
scalar SlicingScenario.node[18].appl rxTimeOfService_40_121 67.001130523751
scalar SlicingScenario.node[18].appl txTimeOfService_40_121 0
scalar SlicingScenario.node[18].nic.phy80211p busyTime 0.059093217391302
scalar SlicingScenario.node[18].nic.phy80211p ncollisions 0
scalar SlicingScenario.node[18].nic.phy80211p UnderSensitivityPackets 309
scalar SlicingScenario.node[18].nic.mac1609_4 ReceivedUnicastPackets_CCH 0
scalar SlicingScenario.node[18].nic.mac1609_4 ReceivedBroadcasts_CCH 0
scalar SlicingScenario.node[18].nic.mac1609_4 SentPackets_CCH 0
scalar SlicingScenario.node[18].nic.mac1609_4 SentAcknowledgements_CCH 0
scalar SlicingScenario.node[18].nic.mac1609_4 SNIRLostPackets_CCH 0
scalar SlicingScenario.node[18].nic.mac1609_4 RXTXLostPackets_CCH 0
scalar SlicingScenario.node[18].nic.mac1609_4 TotalLostPackets_CCH 0
scalar SlicingScenario.node[18].nic.mac1609_4 DroppedPacketsInMac_CCH 0
scalar SlicingScenario.node[18].nic.mac1609_4 TooLittleTime_CCH 0
scalar SlicingScenario.node[18].nic.mac1609_4 TimesIntoBackoff_CCH 0
scalar SlicingScenario.node[18].nic.mac1609_4 SlotsBackoff_CCH 0
scalar SlicingScenario.node[18].nic.mac1609_4 NumInternalContention_CCH 0
scalar SlicingScenario.node[18].nic.mac1609_4 RemainingPacketsInEDCA_CCH 0
scalar SlicingScenario.node[18].nic.mac1609_4 totalBusyTime_CCH 0
scalar SlicingScenario.node[18].nic.mac1609_4 ReceivedUnicastPackets_SCH 0
scalar SlicingScenario.node[18].nic.mac1609_4 ReceivedBroadcasts_SCH 2634
scalar SlicingScenario.node[18].nic.mac1609_4 SentPackets_SCH 0
scalar SlicingScenario.node[18].nic.mac1609_4 SentAcknowledgements_SCH 0
scalar SlicingScenario.node[18].nic.mac1609_4 SNIRLostPackets_SCH 0
scalar SlicingScenario.node[18].nic.mac1609_4 RXTXLostPackets_SCH 0
scalar SlicingScenario.node[18].nic.mac1609_4 TotalLostPackets_SCH 0
scalar SlicingScenario.node[18].nic.mac1609_4 DroppedPacketsInMac_SCH 0
scalar SlicingScenario.node[18].nic.mac1609_4 TooLittleTime_SCH 0
scalar SlicingScenario.node[18].nic.mac1609_4 TimesIntoBackoff_SCH 0
scalar SlicingScenario.node[18].nic.mac1609_4 SlotsBackoff_SCH 0
scalar SlicingScenario.node[18].nic.mac1609_4 NumInternalContention_SCH 0
scalar SlicingScenario.node[18].nic.mac1609_4 RemainingPacketsInEDCA_SCH 0
scalar SlicingScenario.node[18].nic.mac1609_4 totalBusyTime_SCH 5.436576
scalar SlicingScenario.node[18].veinsmobility startTime 19
scalar SlicingScenario.node[18].veinsmobility totalTime 91
scalar SlicingScenario.node[18].veinsmobility stopTime 111
scalar SlicingScenario.node[18].veinsmobility minSpeed 10.612190183033
scalar SlicingScenario.node[18].veinsmobility maxSpeed 11.101599967354
scalar SlicingScenario.node[18].veinsmobility totalDistance 979.51594998572
scalar SlicingScenario.node[18].veinsmobility totalCO2Emission 157.90452209879
scalar SlicingScenario.node[19].appl txPackets_127 0
scalar SlicingScenario.node[19].appl rxPackets_127 0
scalar SlicingScenario.node[19].appl rxNeighborPackets_127 0
scalar SlicingScenario.node[19].appl meanDelay_127 0
scalar SlicingScenario.node[19].appl meanJitter_127 0
scalar SlicingScenario.node[19].appl meanRxPacketSize_127 0
scalar SlicingScenario.node[19].appl meanTxPacketSize_127 0
scalar SlicingScenario.node[19].appl meanRxThroughput_127 0
scalar SlicingScenario.node[19].appl meanTxThroughput_127 0
scalar SlicingScenario.node[19].appl rxTimeOfService_127 0
scalar SlicingScenario.node[19].appl txTimeOfService_127 0
scalar SlicingScenario.node[19].appl txPackets_40_127 0
scalar SlicingScenario.node[19].appl rxPackets_40_127 68
scalar SlicingScenario.node[19].appl rxNeighborPackets_40_127 1478
scalar SlicingScenario.node[19].appl meanDelay_40_127 0.002073278658
scalar SlicingScenario.node[19].appl meanJitter_40_127 3.1180577e-05
scalar SlicingScenario.node[19].appl meanRxPacketSize_40_127 1510
scalar SlicingScenario.node[19].appl meanTxPacketSize_40_127 0
scalar SlicingScenario.node[19].appl meanRxThroughput_40_127 12260.299320629
scalar SlicingScenario.node[19].appl meanTxThroughput_40_127 0
scalar SlicingScenario.node[19].appl rxTimeOfService_40_127 66.999995556212
scalar SlicingScenario.node[19].appl txTimeOfService_40_127 0
scalar SlicingScenario.node[19].nic.phy80211p busyTime 0.060299870967739
scalar SlicingScenario.node[19].nic.phy80211p ncollisions 0
scalar SlicingScenario.node[19].nic.phy80211p UnderSensitivityPackets 327
scalar SlicingScenario.node[19].nic.mac1609_4 ReceivedUnicastPackets_CCH 0
scalar SlicingScenario.node[19].nic.mac1609_4 ReceivedBroadcasts_CCH 0
scalar SlicingScenario.node[19].nic.mac1609_4 SentPackets_CCH 0
[...]
scalar SlicingScenario.rsu[0].appl rxPackets_41_205 0
scalar SlicingScenario.rsu[0].appl rxNeighborPackets_41_205 0
scalar SlicingScenario.rsu[0].appl meanDelay_41_205 0
scalar SlicingScenario.rsu[0].appl meanJitter_41_205 0
scalar SlicingScenario.rsu[0].appl meanRxPacketSize_41_205 0
scalar SlicingScenario.rsu[0].appl meanTxPacketSize_41_205 1510
scalar SlicingScenario.rsu[0].appl meanRxThroughput_41_205 0
scalar SlicingScenario.rsu[0].appl meanTxThroughput_41_205 12107.898383372
scalar SlicingScenario.rsu[0].appl rxTimeOfService_41_205 0
scalar SlicingScenario.rsu[0].appl txTimeOfService_41_205 433
scalar SlicingScenario.rsu[0].appl txPackets_41_211 432
scalar SlicingScenario.rsu[0].appl rxPackets_41_211 0
scalar SlicingScenario.rsu[0].appl rxNeighborPackets_41_211 0
scalar SlicingScenario.rsu[0].appl meanDelay_41_211 0
scalar SlicingScenario.rsu[0].appl meanJitter_41_211 0
scalar SlicingScenario.rsu[0].appl meanRxPacketSize_41_211 0
scalar SlicingScenario.rsu[0].appl meanTxPacketSize_41_211 1510
scalar SlicingScenario.rsu[0].appl meanRxThroughput_41_211 0
scalar SlicingScenario.rsu[0].appl meanTxThroughput_41_211 12108.027842227
scalar SlicingScenario.rsu[0].appl rxTimeOfService_41_211 0
scalar SlicingScenario.rsu[0].appl txTimeOfService_41_211 431
scalar SlicingScenario.rsu[0].appl txPackets_41_241 422
scalar SlicingScenario.rsu[0].appl rxPackets_41_241 0
scalar SlicingScenario.rsu[0].appl rxNeighborPackets_41_241 0
scalar SlicingScenario.rsu[0].appl meanDelay_41_241 0
scalar SlicingScenario.rsu[0].appl meanJitter_41_241 0
scalar SlicingScenario.rsu[0].appl meanRxPacketSize_41_241 0
scalar SlicingScenario.rsu[0].appl meanTxPacketSize_41_241 1510
scalar SlicingScenario.rsu[0].appl meanRxThroughput_41_241 0
scalar SlicingScenario.rsu[0].appl meanTxThroughput_41_241 12108.693586698
scalar SlicingScenario.rsu[0].appl rxTimeOfService_41_241 0
scalar SlicingScenario.rsu[0].appl txTimeOfService_41_241 421
scalar SlicingScenario.rsu[0].appl txPackets_41_247 420
scalar SlicingScenario.rsu[0].appl rxPackets_41_247 0
scalar SlicingScenario.rsu[0].appl rxNeighborPackets_41_247 0
scalar SlicingScenario.rsu[0].appl meanDelay_41_247 0
scalar SlicingScenario.rsu[0].appl meanJitter_41_247 0
scalar SlicingScenario.rsu[0].appl meanRxPacketSize_41_247 0
scalar SlicingScenario.rsu[0].appl meanTxPacketSize_41_247 1510
scalar SlicingScenario.rsu[0].appl meanRxThroughput_41_247 0
scalar SlicingScenario.rsu[0].appl meanTxThroughput_41_247 12108.830548926
scalar SlicingScenario.rsu[0].appl rxTimeOfService_41_247 0
scalar SlicingScenario.rsu[0].appl txTimeOfService_41_247 419
scalar SlicingScenario.rsu[0].appl txPackets_41_265 414
scalar SlicingScenario.rsu[0].appl rxPackets_41_265 0
scalar SlicingScenario.rsu[0].appl rxNeighborPackets_41_265 0
scalar SlicingScenario.rsu[0].appl meanDelay_41_265 0
scalar SlicingScenario.rsu[0].appl meanJitter_41_265 0
scalar SlicingScenario.rsu[0].appl meanRxPacketSize_41_265 0
scalar SlicingScenario.rsu[0].appl meanTxPacketSize_41_265 1510
scalar SlicingScenario.rsu[0].appl meanRxThroughput_41_265 0
scalar SlicingScenario.rsu[0].appl meanTxThroughput_41_265 12109.249394673
scalar SlicingScenario.rsu[0].appl rxTimeOfService_41_265 0
scalar SlicingScenario.rsu[0].appl txTimeOfService_41_265 413
scalar SlicingScenario.rsu[0].appl txPackets_41_277 410
scalar SlicingScenario.rsu[0].appl rxPackets_41_277 0
scalar SlicingScenario.rsu[0].appl rxNeighborPackets_41_277 0
scalar SlicingScenario.rsu[0].appl meanDelay_41_277 0
scalar SlicingScenario.rsu[0].appl meanJitter_41_277 0
scalar SlicingScenario.rsu[0].appl meanRxPacketSize_41_277 0
scalar SlicingScenario.rsu[0].appl meanTxPacketSize_41_277 1510
scalar SlicingScenario.rsu[0].appl meanRxThroughput_41_277 0
scalar SlicingScenario.rsu[0].appl meanTxThroughput_41_277 12109.535452323
scalar SlicingScenario.rsu[0].appl rxTimeOfService_41_277 0
scalar SlicingScenario.rsu[0].appl txTimeOfService_41_277 409
scalar SlicingScenario.rsu[0].appl txPackets_41_295 404
scalar SlicingScenario.rsu[0].appl rxPackets_41_295 0
scalar SlicingScenario.rsu[0].appl rxNeighborPackets_41_295 0
scalar SlicingScenario.rsu[0].appl meanDelay_41_295 0
scalar SlicingScenario.rsu[0].appl meanJitter_41_295 0
scalar SlicingScenario.rsu[0].appl meanRxPacketSize_41_295 0
scalar SlicingScenario.rsu[0].appl meanTxPacketSize_41_295 1510
scalar SlicingScenario.rsu[0].appl meanRxThroughput_41_295 0
scalar SlicingScenario.rsu[0].appl meanTxThroughput_41_295 12109.975186104
scalar SlicingScenario.rsu[0].appl rxTimeOfService_41_295 0
scalar SlicingScenario.rsu[0].appl txTimeOfService_41_295 403
scalar SlicingScenario.rsu[0].appl txPackets_41_301 402
scalar SlicingScenario.rsu[0].appl rxPackets_41_301 0
scalar SlicingScenario.rsu[0].appl rxNeighborPackets_41_301 0
scalar SlicingScenario.rsu[0].appl meanDelay_41_301 0
scalar SlicingScenario.rsu[0].appl meanJitter_41_301 0
scalar SlicingScenario.rsu[0].appl meanRxPacketSize_41_301 0
scalar SlicingScenario.rsu[0].appl meanTxPacketSize_41_301 1510
scalar SlicingScenario.rsu[0].appl meanRxThroughput_41_301 0
scalar SlicingScenario.rsu[0].appl meanTxThroughput_41_301 12110.124688279
scalar SlicingScenario.rsu[0].appl rxTimeOfService_41_301 0
scalar SlicingScenario.rsu[0].appl txTimeOfService_41_301 401
scalar SlicingScenario.rsu[0].appl txPackets_41_307 400
scalar SlicingScenario.rsu[0].appl rxPackets_41_307 0
scalar SlicingScenario.rsu[0].appl rxNeighborPackets_41_307 0
scalar SlicingScenario.rsu[0].appl meanDelay_41_307 0
scalar SlicingScenario.rsu[0].appl meanJitter_41_307 0
scalar SlicingScenario.rsu[0].appl meanRxPacketSize_41_307 0
scalar SlicingScenario.rsu[0].appl meanTxPacketSize_41_307 1510
scalar SlicingScenario.rsu[0].appl meanRxThroughput_41_307 0
scalar SlicingScenario.rsu[0].appl meanTxThroughput_41_307 12110.275689223
scalar SlicingScenario.rsu[0].appl rxTimeOfService_41_307 0
scalar SlicingScenario.rsu[0].appl txTimeOfService_41_307 399
scalar SlicingScenario.rsu[0].appl txPackets_41_331 392
scalar SlicingScenario.rsu[0].appl rxPackets_41_331 0
scalar SlicingScenario.rsu[0].appl rxNeighborPackets_41_331 0
scalar SlicingScenario.rsu[0].appl meanDelay_41_331 0
scalar SlicingScenario.rsu[0].appl meanJitter_41_331 0
scalar SlicingScenario.rsu[0].appl meanRxPacketSize_41_331 0
scalar SlicingScenario.rsu[0].appl meanTxPacketSize_41_331 1510
scalar SlicingScenario.rsu[0].appl meanRxThroughput_41_331 0
scalar SlicingScenario.rsu[0].appl meanTxThroughput_41_331 12110.895140665
scalar SlicingScenario.rsu[0].appl rxTimeOfService_41_331 0
scalar SlicingScenario.rsu[0].appl txTimeOfService_41_331 391
scalar SlicingScenario.rsu[0].appl txPackets_41_337 390
scalar SlicingScenario.rsu[0].appl rxPackets_41_337 0
scalar SlicingScenario.rsu[0].appl rxNeighborPackets_41_337 0
scalar SlicingScenario.rsu[0].appl meanDelay_41_337 0
scalar SlicingScenario.rsu[0].appl meanJitter_41_337 0
scalar SlicingScenario.rsu[0].appl meanRxPacketSize_41_337 0
scalar SlicingScenario.rsu[0].appl meanTxPacketSize_41_337 1510
scalar SlicingScenario.rsu[0].appl meanRxThroughput_41_337 0
scalar SlicingScenario.rsu[0].appl meanTxThroughput_41_337 12111.053984576
scalar SlicingScenario.rsu[0].appl rxTimeOfService_41_337 0
scalar SlicingScenario.rsu[0].appl txTimeOfService_41_337 389
scalar SlicingScenario.rsu[0].appl txPackets_41_349 386
scalar SlicingScenario.rsu[0].appl rxPackets_41_349 0
scalar SlicingScenario.rsu[0].appl rxNeighborPackets_41_349 0
scalar SlicingScenario.rsu[0].appl meanDelay_41_349 0
scalar SlicingScenario.rsu[0].appl meanJitter_41_349 0
scalar SlicingScenario.rsu[0].appl meanRxPacketSize_41_349 0
scalar SlicingScenario.rsu[0].appl meanTxPacketSize_41_349 1510
scalar SlicingScenario.rsu[0].appl meanRxThroughput_41_349 0
scalar SlicingScenario.rsu[0].appl meanTxThroughput_41_349 12111.376623377
scalar SlicingScenario.rsu[0].appl rxTimeOfService_41_349 0
scalar SlicingScenario.rsu[0].appl txTimeOfService_41_349 385
scalar SlicingScenario.rsu[0].appl txPackets_41_355 384
scalar SlicingScenario.rsu[0].appl rxPackets_41_355 0
scalar SlicingScenario.rsu[0].appl rxNeighborPackets_41_355 0
scalar SlicingScenario.rsu[0].appl meanDelay_41_355 0
scalar SlicingScenario.rsu[0].appl meanJitter_41_355 0
scalar SlicingScenario.rsu[0].appl meanRxPacketSize_41_355 0
scalar SlicingScenario.rsu[0].appl meanTxPacketSize_41_355 1510
scalar SlicingScenario.rsu[0].appl meanRxThroughput_41_355 0
scalar SlicingScenario.rsu[0].appl meanTxThroughput_41_355 12111.540469974
scalar SlicingScenario.rsu[0].appl rxTimeOfService_41_355 0
scalar SlicingScenario.rsu[0].appl txTimeOfService_41_355 383
scalar SlicingScenario.rsu[0].appl txPackets_41_361 382
scalar SlicingScenario.rsu[0].appl rxPackets_41_361 0
scalar SlicingScenario.rsu[0].appl rxNeighborPackets_41_361 0
scalar SlicingScenario.rsu[0].appl meanDelay_41_361 0
scalar SlicingScenario.rsu[0].appl meanJitter_41_361 0
scalar SlicingScenario.rsu[0].appl meanRxPacketSize_41_361 0
scalar SlicingScenario.rsu[0].appl meanTxPacketSize_41_361 1510
scalar SlicingScenario.rsu[0].appl meanRxThroughput_41_361 0
scalar SlicingScenario.rsu[0].appl meanTxThroughput_41_361 12111.706036745
scalar SlicingScenario.rsu[0].appl rxTimeOfService_41_361 0
scalar SlicingScenario.rsu[0].appl txTimeOfService_41_361 381
scalar SlicingScenario.rsu[0].appl txPackets_41_367 380
scalar SlicingScenario.rsu[0].appl rxPackets_41_367 0
scalar SlicingScenario.rsu[0].appl rxNeighborPackets_41_367 0
scalar SlicingScenario.rsu[0].appl meanDelay_41_367 0
scalar SlicingScenario.rsu[0].appl meanJitter_41_367 0
scalar SlicingScenario.rsu[0].appl meanRxPacketSize_41_367 0
scalar SlicingScenario.rsu[0].appl meanTxPacketSize_41_367 1510
scalar SlicingScenario.rsu[0].appl meanRxThroughput_41_367 0
scalar SlicingScenario.rsu[0].appl meanTxThroughput_41_367 12111.873350923
scalar SlicingScenario.rsu[0].appl rxTimeOfService_41_367 0
scalar SlicingScenario.rsu[0].appl txTimeOfService_41_367 379
scalar SlicingScenario.rsu[0].appl txPackets_41_373 378
scalar SlicingScenario.rsu[0].appl rxPackets_41_373 0
scalar SlicingScenario.rsu[0].appl rxNeighborPackets_41_373 0
scalar SlicingScenario.rsu[0].appl meanDelay_41_373 0
scalar SlicingScenario.rsu[0].appl meanJitter_41_373 0
scalar SlicingScenario.rsu[0].appl meanRxPacketSize_41_373 0
scalar SlicingScenario.rsu[0].appl meanTxPacketSize_41_373 1510
scalar SlicingScenario.rsu[0].appl meanRxThroughput_41_373 0
scalar SlicingScenario.rsu[0].appl meanTxThroughput_41_373 12112.042440318
scalar SlicingScenario.rsu[0].appl rxTimeOfService_41_373 0
scalar SlicingScenario.rsu[0].appl txTimeOfService_41_373 377
scalar SlicingScenario.rsu[0].appl txPackets_41_397 368
scalar SlicingScenario.rsu[0].appl rxPackets_41_397 0
scalar SlicingScenario.rsu[0].appl rxNeighborPackets_41_397 0
scalar SlicingScenario.rsu[0].appl meanDelay_41_397 0
scalar SlicingScenario.rsu[0].appl meanJitter_41_397 0
scalar SlicingScenario.rsu[0].appl meanRxPacketSize_41_397 0
scalar SlicingScenario.rsu[0].appl meanTxPacketSize_41_397 1510
scalar SlicingScenario.rsu[0].appl meanRxThroughput_41_397 0
scalar SlicingScenario.rsu[0].appl meanTxThroughput_41_397 12112.915531335
scalar SlicingScenario.rsu[0].appl rxTimeOfService_41_397 0
scalar SlicingScenario.rsu[0].appl txTimeOfService_41_397 367
scalar SlicingScenario.rsu[0].appl txPackets_41_403 368
scalar SlicingScenario.rsu[0].appl rxPackets_41_403 0
scalar SlicingScenario.rsu[0].appl rxNeighborPackets_41_403 0
scalar SlicingScenario.rsu[0].appl meanDelay_41_403 0
scalar SlicingScenario.rsu[0].appl meanJitter_41_403 0
scalar SlicingScenario.rsu[0].appl meanRxPacketSize_41_403 0
scalar SlicingScenario.rsu[0].appl meanTxPacketSize_41_403 1510
scalar SlicingScenario.rsu[0].appl meanRxThroughput_41_403 0
scalar SlicingScenario.rsu[0].appl meanTxThroughput_41_403 12112.915531335
scalar SlicingScenario.rsu[0].appl rxTimeOfService_41_403 0
scalar SlicingScenario.rsu[0].appl txTimeOfService_41_403 367
scalar SlicingScenario.rsu[0].appl txPackets_41_409 366
scalar SlicingScenario.rsu[0].appl rxPackets_41_409 0
scalar SlicingScenario.rsu[0].appl rxNeighborPackets_41_409 0
scalar SlicingScenario.rsu[0].appl meanDelay_41_409 0
scalar SlicingScenario.rsu[0].appl meanJitter_41_409 0
scalar SlicingScenario.rsu[0].appl meanRxPacketSize_41_409 0
scalar SlicingScenario.rsu[0].appl meanTxPacketSize_41_409 1510
scalar SlicingScenario.rsu[0].appl meanRxThroughput_41_409 0
scalar SlicingScenario.rsu[0].appl meanTxThroughput_41_409 12113.095890411
scalar SlicingScenario.rsu[0].appl rxTimeOfService_41_409 0
scalar SlicingScenario.rsu[0].appl txTimeOfService_41_409 365
scalar SlicingScenario.rsu[0].appl txPackets_41_415 364
scalar SlicingScenario.rsu[0].appl rxPackets_41_415 0
scalar SlicingScenario.rsu[0].appl rxNeighborPackets_41_415 0
scalar SlicingScenario.rsu[0].appl meanDelay_41_415 0
scalar SlicingScenario.rsu[0].appl meanJitter_41_415 0
scalar SlicingScenario.rsu[0].appl meanRxPacketSize_41_415 0
scalar SlicingScenario.rsu[0].appl meanTxPacketSize_41_415 1510
scalar SlicingScenario.rsu[0].appl meanRxThroughput_41_415 0
scalar SlicingScenario.rsu[0].appl meanTxThroughput_41_415 12113.278236915
scalar SlicingScenario.rsu[0].appl rxTimeOfService_41_415 0
scalar SlicingScenario.rsu[0].appl txTimeOfService_41_415 363
scalar SlicingScenario.rsu[0].appl txPackets_41_427 360
scalar SlicingScenario.rsu[0].appl rxPackets_41_427 0
scalar SlicingScenario.rsu[0].appl rxNeighborPackets_41_427 0
scalar SlicingScenario.rsu[0].appl meanDelay_41_427 0
scalar SlicingScenario.rsu[0].appl meanJitter_41_427 0
scalar SlicingScenario.rsu[0].appl meanRxPacketSize_41_427 0
scalar SlicingScenario.rsu[0].appl meanTxPacketSize_41_427 1510
scalar SlicingScenario.rsu[0].appl meanRxThroughput_41_427 0
scalar SlicingScenario.rsu[0].appl meanTxThroughput_41_427 12113.64902507
scalar SlicingScenario.rsu[0].appl rxTimeOfService_41_427 0
scalar SlicingScenario.rsu[0].appl txTimeOfService_41_427 359
scalar SlicingScenario.rsu[0].appl txPackets_41_433 358
scalar SlicingScenario.rsu[0].appl rxPackets_41_433 0
scalar SlicingScenario.rsu[0].appl rxNeighborPackets_41_433 0
scalar SlicingScenario.rsu[0].appl meanDelay_41_433 0
scalar SlicingScenario.rsu[0].appl meanJitter_41_433 0
scalar SlicingScenario.rsu[0].appl meanRxPacketSize_41_433 0
scalar SlicingScenario.rsu[0].appl meanTxPacketSize_41_433 1510
scalar SlicingScenario.rsu[0].appl meanRxThroughput_41_433 0
scalar SlicingScenario.rsu[0].appl meanTxThroughput_41_433 12113.837535014
scalar SlicingScenario.rsu[0].appl rxTimeOfService_41_433 0
scalar SlicingScenario.rsu[0].appl txTimeOfService_41_433 357
scalar SlicingScenario.rsu[0].appl txPackets_41_439 354
scalar SlicingScenario.rsu[0].appl rxPackets_41_439 0
scalar SlicingScenario.rsu[0].appl rxNeighborPackets_41_439 0
scalar SlicingScenario.rsu[0].appl meanDelay_41_439 0
scalar SlicingScenario.rsu[0].appl meanJitter_41_439 0
scalar SlicingScenario.rsu[0].appl meanRxPacketSize_41_439 0
scalar SlicingScenario.rsu[0].appl meanTxPacketSize_41_439 1510
scalar SlicingScenario.rsu[0].appl meanRxThroughput_41_439 0
scalar SlicingScenario.rsu[0].appl meanTxThroughput_41_439 12114.220963173
scalar SlicingScenario.rsu[0].appl rxTimeOfService_41_439 0
scalar SlicingScenario.rsu[0].appl txTimeOfService_41_439 353
scalar SlicingScenario.rsu[0].appl txPackets_41_445 354
scalar SlicingScenario.rsu[0].appl rxPackets_41_445 0
scalar SlicingScenario.rsu[0].appl rxNeighborPackets_41_445 0
scalar SlicingScenario.rsu[0].appl meanDelay_41_445 0
scalar SlicingScenario.rsu[0].appl meanJitter_41_445 0
scalar SlicingScenario.rsu[0].appl meanRxPacketSize_41_445 0
scalar SlicingScenario.rsu[0].appl meanTxPacketSize_41_445 1510
scalar SlicingScenario.rsu[0].appl meanRxThroughput_41_445 0
scalar SlicingScenario.rsu[0].appl meanTxThroughput_41_445 12114.220963173
scalar SlicingScenario.rsu[0].appl rxTimeOfService_41_445 0
scalar SlicingScenario.rsu[0].appl txTimeOfService_41_445 353
scalar SlicingScenario.rsu[0].appl txPackets_41_463 348
scalar SlicingScenario.rsu[0].appl rxPackets_41_463 0
scalar SlicingScenario.rsu[0].appl rxNeighborPackets_41_463 0
scalar SlicingScenario.rsu[0].appl meanDelay_41_463 0
scalar SlicingScenario.rsu[0].appl meanJitter_41_463 0
scalar SlicingScenario.rsu[0].appl meanRxPacketSize_41_463 0
scalar SlicingScenario.rsu[0].appl meanTxPacketSize_41_463 1510
scalar SlicingScenario.rsu[0].appl meanRxThroughput_41_463 0
scalar SlicingScenario.rsu[0].appl meanTxThroughput_41_463 12114.812680115
scalar SlicingScenario.rsu[0].appl rxTimeOfService_41_463 0
scalar SlicingScenario.rsu[0].appl txTimeOfService_41_463 347
scalar SlicingScenario.rsu[0].appl txPackets_41_469 346
scalar SlicingScenario.rsu[0].appl rxPackets_41_469 0
scalar SlicingScenario.rsu[0].appl rxNeighborPackets_41_469 0
scalar SlicingScenario.rsu[0].appl meanDelay_41_469 0
scalar SlicingScenario.rsu[0].appl meanJitter_41_469 0
scalar SlicingScenario.rsu[0].appl meanRxPacketSize_41_469 0
scalar SlicingScenario.rsu[0].appl meanTxPacketSize_41_469 1510
scalar SlicingScenario.rsu[0].appl meanRxThroughput_41_469 0
scalar SlicingScenario.rsu[0].appl meanTxThroughput_41_469 12115.014492754
scalar SlicingScenario.rsu[0].appl rxTimeOfService_41_469 0
scalar SlicingScenario.rsu[0].appl txTimeOfService_41_469 345
scalar SlicingScenario.rsu[0].appl txPackets_41_475 344
scalar SlicingScenario.rsu[0].appl rxPackets_41_475 0
scalar SlicingScenario.rsu[0].appl rxNeighborPackets_41_475 0
scalar SlicingScenario.rsu[0].appl meanDelay_41_475 0
scalar SlicingScenario.rsu[0].appl meanJitter_41_475 0
scalar SlicingScenario.rsu[0].appl meanRxPacketSize_41_475 0
scalar SlicingScenario.rsu[0].appl meanTxPacketSize_41_475 1510
scalar SlicingScenario.rsu[0].appl meanRxThroughput_41_475 0
scalar SlicingScenario.rsu[0].appl meanTxThroughput_41_475 12115.218658892
scalar SlicingScenario.rsu[0].appl rxTimeOfService_41_475 0
scalar SlicingScenario.rsu[0].appl txTimeOfService_41_475 343
scalar SlicingScenario.rsu[0].nic.phy80211p busyTime 0
scalar SlicingScenario.rsu[0].nic.phy80211p ncollisions 0
scalar SlicingScenario.rsu[0].nic.phy80211p UnderSensitivityPackets 0
scalar SlicingScenario.rsu[0].nic.mac1609_4 ReceivedUnicastPackets_CCH 0
scalar SlicingScenario.rsu[0].nic.mac1609_4 ReceivedBroadcasts_CCH 0
scalar SlicingScenario.rsu[0].nic.mac1609_4 SentPackets_CCH 0
scalar SlicingScenario.rsu[0].nic.mac1609_4 SentAcknowledgements_CCH 0
scalar SlicingScenario.rsu[0].nic.mac1609_4 SNIRLostPackets_CCH 0
scalar SlicingScenario.rsu[0].nic.mac1609_4 RXTXLostPackets_CCH 0
scalar SlicingScenario.rsu[0].nic.mac1609_4 TotalLostPackets_CCH 0
scalar SlicingScenario.rsu[0].nic.mac1609_4 DroppedPacketsInMac_CCH 0
scalar SlicingScenario.rsu[0].nic.mac1609_4 TooLittleTime_CCH 0
scalar SlicingScenario.rsu[0].nic.mac1609_4 TimesIntoBackoff_CCH 0
scalar SlicingScenario.rsu[0].nic.mac1609_4 SlotsBackoff_CCH 0
scalar SlicingScenario.rsu[0].nic.mac1609_4 NumInternalContention_CCH 0
scalar SlicingScenario.rsu[0].nic.mac1609_4 RemainingPacketsInEDCA_CCH 0
scalar SlicingScenario.rsu[0].nic.mac1609_4 totalBusyTime_CCH 0
scalar SlicingScenario.rsu[0].nic.mac1609_4 ReceivedUnicastPackets_SCH 0
scalar SlicingScenario.rsu[0].nic.mac1609_4 ReceivedBroadcasts_SCH 0
scalar SlicingScenario.rsu[0].nic.mac1609_4 SentPackets_SCH 33510
scalar SlicingScenario.rsu[0].nic.mac1609_4 SentAcknowledgements_SCH 0
scalar SlicingScenario.rsu[0].nic.mac1609_4 SNIRLostPackets_SCH 0
scalar SlicingScenario.rsu[0].nic.mac1609_4 RXTXLostPackets_SCH 0
scalar SlicingScenario.rsu[0].nic.mac1609_4 TotalLostPackets_SCH 0
scalar SlicingScenario.rsu[0].nic.mac1609_4 DroppedPacketsInMac_SCH 0
scalar SlicingScenario.rsu[0].nic.mac1609_4 TooLittleTime_SCH 0
scalar SlicingScenario.rsu[0].nic.mac1609_4 TimesIntoBackoff_SCH 35672
scalar SlicingScenario.rsu[0].nic.mac1609_4 SlotsBackoff_SCH 116766
scalar SlicingScenario.rsu[0].nic.mac1609_4 NumInternalContention_SCH 0
scalar SlicingScenario.rsu[0].nic.mac1609_4 RemainingPacketsInEDCA_SCH 0
scalar SlicingScenario.rsu[0].nic.mac1609_4 totalBusyTime_SCH 69.19815

