version 2
run General-345-20190223-14:50:04-14110
attr configname General
attr datetime 20190223-14:50:04
attr experiment General
attr inifile omnetpp.ini
attr iterationvars "$vehicles=160, $msgSizeA=1500B, $serviceMsgInterval=0.4s"
attr iterationvarsf vehicles=160,msgSizeA=1500B,serviceMsgInterval=0.4s-
attr measurement "$vehicles=160, $msgSizeA=1500B, $serviceMsgInterval=0.4s"
attr network com.liborio.slicing.SlicingScenario
attr processid 14110
attr repetition 5
attr replication #5
attr resultdir results
attr runnumber 345
attr seedset 5
itervar msgSizeA 1500B
itervar serviceMsgInterval 0.4s
itervar vehicles 160
param **.debug false
param **.coreDebug false
param *.playgroundSizeX 1200m
param *.playgroundSizeY 1200m
param *.playgroundSizeZ 50m
param *.annotations.draw true
param *.manager.updateInterval 1s
param *.manager.host "\"localhost\""
param *.manager.port 9999
param *.manager.autoShutdown true
param *.manager.launchConfig "xmldoc(\"highway-\"+string(160)+\".launchd.xml\")"
param *.connectionManager.sendDirect true
param *.connectionManager.maxInterfDist 2600m
param *.connectionManager.drawMaxIntfDist false
param *.rsu[*].applType "\"RSUApp\""
param *.rsu[*].appl.headerLength "80 bit"
param *.rsu[*].appl.sendBeacons false
param *.rsu[*].appl.dataOnSch true
param *.rsu[*].appl.beaconInterval 1s
param *.rsu[*].appl.beaconUserPriority 7
param *.rsu[*].appl.dataUserPriority 5
param *.rsu[*].appl.entMsgADataLengthBytes 1500B
param *.rsu[*].appl.entMsgAUserPriority 4
param *.rsu[*].appl.entMsgAInterval 0.4s
param *.rsu[*].appl.entMsgBDataLengthBytes 1500B
param *.rsu[*].appl.entMsgBUserPriority 4
param *.rsu[*].appl.entMsgBInterval 0.4s
param *.rsu[*].nic.mac1609_4.useServiceChannel true
param *.rsu[*].nic.mac1609_4.txPower 20mW
param *.rsu[*].nic.mac1609_4.bitrate 6Mbps
param *.rsu[*].nic.phy80211p.sensitivity -90.00dBm
param *.rsu[0].mobility.x 515.0
param *.rsu[0].mobility.y 25.0
param *.rsu[0].mobility.z 3
param *.node[*].applType "\"VehApp\""
param *.node[*].appl.headerLength "80 bit"
param *.node[*].appl.sendBeacons false
param *.node[*].appl.dataOnSch true
param *.node[*].appl.beaconInterval 1s
param *.node[*].appl.wsaInterval 1s
param *.node[*].appl.entMsgADataLengthBits 1500B
param *.node[*].appl.entMsgAUserPriority 4
param *.node[*].appl.entMsgAInterval 0.4s
param *.node[*].appl.entMsgBDataLengthBits 1500B
param *.node[*].appl.entMsgBUserPriority 4
param *.node[*].appl.entMsgBInterval 0.4s
param *.node[*].nic.mac1609_4.useServiceChannel true
param *.node[*].nic.mac1609_4.txPower 20mW
param *.node[*].nic.mac1609_4.bitrate 6Mbps
param *.node[*].nic.phy80211p.sensitivity -90.00dBm
param *.node[*].veinsmobilityType.debug true
param *.node[*].veinsmobility.x 0
param *.node[*].veinsmobility.y 0
param *.node[*].veinsmobility.z 1.895
param *.**.nic.phy80211p.useThermalNoise true
param *.**.nic.phy80211p.thermalNoise -110dBm
param *.**.nic.phy80211p.decider "xmldoc(\"config.xml\")"
param *.**.nic.phy80211p.analogueModels "xmldoc(\"config.xml\")"
param *.**.nic.phy80211p.usePropagationDelay true
param *.**.nic.phy80211p.antenna "xmldoc(\"antenna.xml\", \"/root/Antenna[@id='monopole']\")"
param *.**.nic.phy80211p.collectCollisionStatistics true
param *.**.nic.phy80211p.allowTxDuringRx false

scalar SlicingScenario.node[0].appl txPackets_13 0
scalar SlicingScenario.node[0].appl rxPackets_13 0
scalar SlicingScenario.node[0].appl rxNeighborPackets_13 0
scalar SlicingScenario.node[0].appl meanDelay_13 0
scalar SlicingScenario.node[0].appl meanJitter_13 0
scalar SlicingScenario.node[0].appl meanRxPacketSize_13 0
scalar SlicingScenario.node[0].appl meanTxPacketSize_13 0
scalar SlicingScenario.node[0].appl meanRxThroughput_13 0
scalar SlicingScenario.node[0].appl meanTxThroughput_13 0
scalar SlicingScenario.node[0].appl rxTimeOfService_13 0
scalar SlicingScenario.node[0].appl txTimeOfService_13 0
scalar SlicingScenario.node[0].appl txPackets_40_13 0
scalar SlicingScenario.node[0].appl rxPackets_40_13 207
scalar SlicingScenario.node[0].appl rxNeighborPackets_40_13 2290
scalar SlicingScenario.node[0].appl meanDelay_40_13 0.003316881687
scalar SlicingScenario.node[0].appl meanJitter_40_13 5.3775721e-05
scalar SlicingScenario.node[0].appl meanRxPacketSize_40_13 1510
scalar SlicingScenario.node[0].appl meanTxPacketSize_40_13 0
scalar SlicingScenario.node[0].appl meanRxThroughput_40_13 30345.255931311
scalar SlicingScenario.node[0].appl meanTxThroughput_40_13 0
scalar SlicingScenario.node[0].appl rxTimeOfService_40_13 82.403654978565
scalar SlicingScenario.node[0].appl txTimeOfService_40_13 0
scalar SlicingScenario.node[0].nic.phy80211p busyTime 0.10497234782609
scalar SlicingScenario.node[0].nic.phy80211p ncollisions 0
scalar SlicingScenario.node[0].nic.phy80211p UnderSensitivityPackets 572
scalar SlicingScenario.node[0].nic.mac1609_4 ReceivedUnicastPackets_CCH 0
scalar SlicingScenario.node[0].nic.mac1609_4 ReceivedBroadcasts_CCH 0
scalar SlicingScenario.node[0].nic.mac1609_4 SentPackets_CCH 0
scalar SlicingScenario.node[0].nic.mac1609_4 SentAcknowledgements_CCH 0
scalar SlicingScenario.node[0].nic.mac1609_4 SNIRLostPackets_CCH 0
scalar SlicingScenario.node[0].nic.mac1609_4 RXTXLostPackets_CCH 0
scalar SlicingScenario.node[0].nic.mac1609_4 TotalLostPackets_CCH 0
scalar SlicingScenario.node[0].nic.mac1609_4 DroppedPacketsInMac_CCH 0
scalar SlicingScenario.node[0].nic.mac1609_4 TooLittleTime_CCH 0
scalar SlicingScenario.node[0].nic.mac1609_4 TimesIntoBackoff_CCH 0
scalar SlicingScenario.node[0].nic.mac1609_4 SlotsBackoff_CCH 0
scalar SlicingScenario.node[0].nic.mac1609_4 NumInternalContention_CCH 0
scalar SlicingScenario.node[0].nic.mac1609_4 RemainingPacketsInEDCA_CCH 0
scalar SlicingScenario.node[0].nic.mac1609_4 totalBusyTime_CCH 0
scalar SlicingScenario.node[0].nic.mac1609_4 ReceivedUnicastPackets_SCH 0
scalar SlicingScenario.node[0].nic.mac1609_4 ReceivedBroadcasts_SCH 4679
scalar SlicingScenario.node[0].nic.mac1609_4 SentPackets_SCH 0
scalar SlicingScenario.node[0].nic.mac1609_4 SentAcknowledgements_SCH 0
scalar SlicingScenario.node[0].nic.mac1609_4 SNIRLostPackets_SCH 0
scalar SlicingScenario.node[0].nic.mac1609_4 RXTXLostPackets_SCH 0
scalar SlicingScenario.node[0].nic.mac1609_4 TotalLostPackets_SCH 0
scalar SlicingScenario.node[0].nic.mac1609_4 DroppedPacketsInMac_SCH 0
scalar SlicingScenario.node[0].nic.mac1609_4 TooLittleTime_SCH 0
scalar SlicingScenario.node[0].nic.mac1609_4 TimesIntoBackoff_SCH 0
scalar SlicingScenario.node[0].nic.mac1609_4 SlotsBackoff_SCH 0
scalar SlicingScenario.node[0].nic.mac1609_4 NumInternalContention_SCH 0
scalar SlicingScenario.node[0].nic.mac1609_4 RemainingPacketsInEDCA_SCH 0
scalar SlicingScenario.node[0].nic.mac1609_4 totalBusyTime_SCH 9.657456
scalar SlicingScenario.node[0].veinsmobility startTime 1
scalar SlicingScenario.node[0].veinsmobility totalTime 91
scalar SlicingScenario.node[0].veinsmobility stopTime 93
scalar SlicingScenario.node[0].veinsmobility minSpeed 10.610949024921
scalar SlicingScenario.node[0].veinsmobility maxSpeed 11.100456494852
scalar SlicingScenario.node[0].veinsmobility totalDistance 976.92107196952
scalar SlicingScenario.node[0].veinsmobility totalCO2Emission 158.03074772167
scalar SlicingScenario.node[1].appl txPackets_19 0
scalar SlicingScenario.node[1].appl rxPackets_19 0
scalar SlicingScenario.node[1].appl rxNeighborPackets_19 0
scalar SlicingScenario.node[1].appl meanDelay_19 0
scalar SlicingScenario.node[1].appl meanJitter_19 0
scalar SlicingScenario.node[1].appl meanRxPacketSize_19 0
scalar SlicingScenario.node[1].appl meanTxPacketSize_19 0
scalar SlicingScenario.node[1].appl meanRxThroughput_19 0
scalar SlicingScenario.node[1].appl meanTxThroughput_19 0
scalar SlicingScenario.node[1].appl rxTimeOfService_19 0
scalar SlicingScenario.node[1].appl txTimeOfService_19 0
scalar SlicingScenario.node[1].appl txPackets_41_19 0
scalar SlicingScenario.node[1].appl rxPackets_41_19 208
scalar SlicingScenario.node[1].appl rxNeighborPackets_41_19 2021
scalar SlicingScenario.node[1].appl meanDelay_41_19 0.002070831714
scalar SlicingScenario.node[1].appl meanJitter_41_19 1.0120974e-05
scalar SlicingScenario.node[1].appl meanRxPacketSize_41_19 1510
scalar SlicingScenario.node[1].appl meanTxPacketSize_41_19 0
scalar SlicingScenario.node[1].appl meanRxThroughput_41_19 30345.89262706
scalar SlicingScenario.node[1].appl meanTxThroughput_41_19 0
scalar SlicingScenario.node[1].appl rxTimeOfService_41_19 82.800002981604
scalar SlicingScenario.node[1].appl txTimeOfService_41_19 0
scalar SlicingScenario.node[1].nic.phy80211p busyTime 0.10746260869565
scalar SlicingScenario.node[1].nic.phy80211p ncollisions 0
scalar SlicingScenario.node[1].nic.phy80211p UnderSensitivityPackets 570
scalar SlicingScenario.node[1].nic.mac1609_4 ReceivedUnicastPackets_CCH 0
scalar SlicingScenario.node[1].nic.mac1609_4 ReceivedBroadcasts_CCH 0
scalar SlicingScenario.node[1].nic.mac1609_4 SentPackets_CCH 0
scalar SlicingScenario.node[1].nic.mac1609_4 SentAcknowledgements_CCH 0
scalar SlicingScenario.node[1].nic.mac1609_4 SNIRLostPackets_CCH 0
scalar SlicingScenario.node[1].nic.mac1609_4 RXTXLostPackets_CCH 0
scalar SlicingScenario.node[1].nic.mac1609_4 TotalLostPackets_CCH 0
scalar SlicingScenario.node[1].nic.mac1609_4 DroppedPacketsInMac_CCH 0
scalar SlicingScenario.node[1].nic.mac1609_4 TooLittleTime_CCH 0
scalar SlicingScenario.node[1].nic.mac1609_4 TimesIntoBackoff_CCH 0
scalar SlicingScenario.node[1].nic.mac1609_4 SlotsBackoff_CCH 0
scalar SlicingScenario.node[1].nic.mac1609_4 NumInternalContention_CCH 0
scalar SlicingScenario.node[1].nic.mac1609_4 RemainingPacketsInEDCA_CCH 0
scalar SlicingScenario.node[1].nic.mac1609_4 totalBusyTime_CCH 0
scalar SlicingScenario.node[1].nic.mac1609_4 ReceivedUnicastPackets_SCH 0
scalar SlicingScenario.node[1].nic.mac1609_4 ReceivedBroadcasts_SCH 4790
scalar SlicingScenario.node[1].nic.mac1609_4 SentPackets_SCH 0
scalar SlicingScenario.node[1].nic.mac1609_4 SentAcknowledgements_SCH 0
scalar SlicingScenario.node[1].nic.mac1609_4 SNIRLostPackets_SCH 0
scalar SlicingScenario.node[1].nic.mac1609_4 RXTXLostPackets_SCH 0
scalar SlicingScenario.node[1].nic.mac1609_4 TotalLostPackets_SCH 0
scalar SlicingScenario.node[1].nic.mac1609_4 DroppedPacketsInMac_SCH 0
scalar SlicingScenario.node[1].nic.mac1609_4 TooLittleTime_SCH 0
scalar SlicingScenario.node[1].nic.mac1609_4 TimesIntoBackoff_SCH 0
scalar SlicingScenario.node[1].nic.mac1609_4 SlotsBackoff_SCH 0
scalar SlicingScenario.node[1].nic.mac1609_4 NumInternalContention_SCH 0
scalar SlicingScenario.node[1].nic.mac1609_4 RemainingPacketsInEDCA_SCH 0
scalar SlicingScenario.node[1].nic.mac1609_4 totalBusyTime_SCH 9.88656
scalar SlicingScenario.node[1].veinsmobility startTime 2
scalar SlicingScenario.node[1].veinsmobility totalTime 91
scalar SlicingScenario.node[1].veinsmobility stopTime 94
scalar SlicingScenario.node[1].veinsmobility minSpeed 10.611284863451
scalar SlicingScenario.node[1].veinsmobility maxSpeed 11.108883655644
scalar SlicingScenario.node[1].veinsmobility totalDistance 979.04527251839
scalar SlicingScenario.node[1].veinsmobility totalCO2Emission 159.91053952012
scalar SlicingScenario.node[2].appl txPackets_25 0
scalar SlicingScenario.node[2].appl rxPackets_25 0
scalar SlicingScenario.node[2].appl rxNeighborPackets_25 0
scalar SlicingScenario.node[2].appl meanDelay_25 0
scalar SlicingScenario.node[2].appl meanJitter_25 0
scalar SlicingScenario.node[2].appl meanRxPacketSize_25 0
scalar SlicingScenario.node[2].appl meanTxPacketSize_25 0
scalar SlicingScenario.node[2].appl meanRxThroughput_25 0
scalar SlicingScenario.node[2].appl meanTxThroughput_25 0
scalar SlicingScenario.node[2].appl rxTimeOfService_25 0
scalar SlicingScenario.node[2].appl txTimeOfService_25 0
scalar SlicingScenario.node[2].appl txPackets_40_25 0
scalar SlicingScenario.node[2].appl rxPackets_40_25 208
scalar SlicingScenario.node[2].appl rxNeighborPackets_40_25 2411
scalar SlicingScenario.node[2].appl meanDelay_40_25 0.00207249153
scalar SlicingScenario.node[2].appl meanJitter_40_25 1.0201697e-05
scalar SlicingScenario.node[2].appl meanRxPacketSize_40_25 1510
scalar SlicingScenario.node[2].appl meanTxPacketSize_40_25 0
scalar SlicingScenario.node[2].appl meanRxThroughput_40_25 30345.894457097
scalar SlicingScenario.node[2].appl meanTxThroughput_40_25 0
scalar SlicingScenario.node[2].appl rxTimeOfService_40_25 82.799997988274
scalar SlicingScenario.node[2].appl txTimeOfService_40_25 0
scalar SlicingScenario.node[2].nic.phy80211p busyTime 0.10961634782609
scalar SlicingScenario.node[2].nic.phy80211p ncollisions 0
scalar SlicingScenario.node[2].nic.phy80211p UnderSensitivityPackets 595
scalar SlicingScenario.node[2].nic.mac1609_4 ReceivedUnicastPackets_CCH 0
scalar SlicingScenario.node[2].nic.mac1609_4 ReceivedBroadcasts_CCH 0
scalar SlicingScenario.node[2].nic.mac1609_4 SentPackets_CCH 0
scalar SlicingScenario.node[2].nic.mac1609_4 SentAcknowledgements_CCH 0
scalar SlicingScenario.node[2].nic.mac1609_4 SNIRLostPackets_CCH 0
scalar SlicingScenario.node[2].nic.mac1609_4 RXTXLostPackets_CCH 0
scalar SlicingScenario.node[2].nic.mac1609_4 TotalLostPackets_CCH 0
scalar SlicingScenario.node[2].nic.mac1609_4 DroppedPacketsInMac_CCH 0
scalar SlicingScenario.node[2].nic.mac1609_4 TooLittleTime_CCH 0
scalar SlicingScenario.node[2].nic.mac1609_4 TimesIntoBackoff_CCH 0
scalar SlicingScenario.node[2].nic.mac1609_4 SlotsBackoff_CCH 0
scalar SlicingScenario.node[2].nic.mac1609_4 NumInternalContention_CCH 0
scalar SlicingScenario.node[2].nic.mac1609_4 RemainingPacketsInEDCA_CCH 0
scalar SlicingScenario.node[2].nic.mac1609_4 totalBusyTime_CCH 0
scalar SlicingScenario.node[2].nic.mac1609_4 ReceivedUnicastPackets_SCH 0
scalar SlicingScenario.node[2].nic.mac1609_4 ReceivedBroadcasts_SCH 4886
scalar SlicingScenario.node[2].nic.mac1609_4 SentPackets_SCH 0
scalar SlicingScenario.node[2].nic.mac1609_4 SentAcknowledgements_SCH 0
scalar SlicingScenario.node[2].nic.mac1609_4 SNIRLostPackets_SCH 0
scalar SlicingScenario.node[2].nic.mac1609_4 RXTXLostPackets_SCH 0
scalar SlicingScenario.node[2].nic.mac1609_4 TotalLostPackets_SCH 0
scalar SlicingScenario.node[2].nic.mac1609_4 DroppedPacketsInMac_SCH 0
scalar SlicingScenario.node[2].nic.mac1609_4 TooLittleTime_SCH 0
scalar SlicingScenario.node[2].nic.mac1609_4 TimesIntoBackoff_SCH 0
scalar SlicingScenario.node[2].nic.mac1609_4 SlotsBackoff_SCH 0
scalar SlicingScenario.node[2].nic.mac1609_4 NumInternalContention_SCH 0
scalar SlicingScenario.node[2].nic.mac1609_4 RemainingPacketsInEDCA_SCH 0
scalar SlicingScenario.node[2].nic.mac1609_4 totalBusyTime_SCH 10.084704
scalar SlicingScenario.node[2].veinsmobility startTime 3
scalar SlicingScenario.node[2].veinsmobility totalTime 91
scalar SlicingScenario.node[2].veinsmobility stopTime 95
scalar SlicingScenario.node[2].veinsmobility minSpeed 10.611152943005
scalar SlicingScenario.node[2].veinsmobility maxSpeed 11.105153166703
scalar SlicingScenario.node[2].veinsmobility totalDistance 979.67243499401
scalar SlicingScenario.node[2].veinsmobility totalCO2Emission 158.94446006827
scalar SlicingScenario.node[3].appl txPackets_31 0
scalar SlicingScenario.node[3].appl rxPackets_31 0
scalar SlicingScenario.node[3].appl rxNeighborPackets_31 0
scalar SlicingScenario.node[3].appl meanDelay_31 0
scalar SlicingScenario.node[3].appl meanJitter_31 0
scalar SlicingScenario.node[3].appl meanRxPacketSize_31 0
scalar SlicingScenario.node[3].appl meanTxPacketSize_31 0
scalar SlicingScenario.node[3].appl meanRxThroughput_31 0
scalar SlicingScenario.node[3].appl meanTxThroughput_31 0
scalar SlicingScenario.node[3].appl rxTimeOfService_31 0
scalar SlicingScenario.node[3].appl txTimeOfService_31 0
scalar SlicingScenario.node[3].appl txPackets_40_31 0
scalar SlicingScenario.node[3].appl rxPackets_40_31 208
scalar SlicingScenario.node[3].appl rxNeighborPackets_40_31 2473
scalar SlicingScenario.node[3].appl meanDelay_40_31 0.003335664319
scalar SlicingScenario.node[3].appl meanJitter_40_31 5.23084e-05
scalar SlicingScenario.node[3].appl meanRxPacketSize_40_31 1510
scalar SlicingScenario.node[3].appl meanTxPacketSize_40_31 0
scalar SlicingScenario.node[3].appl meanRxThroughput_40_31 30345.074259747
scalar SlicingScenario.node[3].appl meanTxThroughput_40_31 0
scalar SlicingScenario.node[3].appl rxTimeOfService_40_31 82.802235990342
scalar SlicingScenario.node[3].appl txTimeOfService_40_31 0
scalar SlicingScenario.node[3].nic.phy80211p busyTime 0.11208417391305
scalar SlicingScenario.node[3].nic.phy80211p ncollisions 0
scalar SlicingScenario.node[3].nic.phy80211p UnderSensitivityPackets 595
scalar SlicingScenario.node[3].nic.mac1609_4 ReceivedUnicastPackets_CCH 0
scalar SlicingScenario.node[3].nic.mac1609_4 ReceivedBroadcasts_CCH 0
scalar SlicingScenario.node[3].nic.mac1609_4 SentPackets_CCH 0
scalar SlicingScenario.node[3].nic.mac1609_4 SentAcknowledgements_CCH 0
scalar SlicingScenario.node[3].nic.mac1609_4 SNIRLostPackets_CCH 0
scalar SlicingScenario.node[3].nic.mac1609_4 RXTXLostPackets_CCH 0
scalar SlicingScenario.node[3].nic.mac1609_4 TotalLostPackets_CCH 0
scalar SlicingScenario.node[3].nic.mac1609_4 DroppedPacketsInMac_CCH 0
scalar SlicingScenario.node[3].nic.mac1609_4 TooLittleTime_CCH 0
scalar SlicingScenario.node[3].nic.mac1609_4 TimesIntoBackoff_CCH 0
scalar SlicingScenario.node[3].nic.mac1609_4 SlotsBackoff_CCH 0
scalar SlicingScenario.node[3].nic.mac1609_4 NumInternalContention_CCH 0
scalar SlicingScenario.node[3].nic.mac1609_4 RemainingPacketsInEDCA_CCH 0
scalar SlicingScenario.node[3].nic.mac1609_4 totalBusyTime_CCH 0
scalar SlicingScenario.node[3].nic.mac1609_4 ReceivedUnicastPackets_SCH 0
scalar SlicingScenario.node[3].nic.mac1609_4 ReceivedBroadcasts_SCH 4996
scalar SlicingScenario.node[3].nic.mac1609_4 SentPackets_SCH 0
scalar SlicingScenario.node[3].nic.mac1609_4 SentAcknowledgements_SCH 0
scalar SlicingScenario.node[3].nic.mac1609_4 SNIRLostPackets_SCH 0
scalar SlicingScenario.node[3].nic.mac1609_4 RXTXLostPackets_SCH 0
scalar SlicingScenario.node[3].nic.mac1609_4 TotalLostPackets_SCH 0
scalar SlicingScenario.node[3].nic.mac1609_4 DroppedPacketsInMac_SCH 0
scalar SlicingScenario.node[3].nic.mac1609_4 TooLittleTime_SCH 0
scalar SlicingScenario.node[3].nic.mac1609_4 TimesIntoBackoff_SCH 0
scalar SlicingScenario.node[3].nic.mac1609_4 SlotsBackoff_SCH 0
scalar SlicingScenario.node[3].nic.mac1609_4 NumInternalContention_SCH 0
scalar SlicingScenario.node[3].nic.mac1609_4 RemainingPacketsInEDCA_SCH 0
scalar SlicingScenario.node[3].nic.mac1609_4 totalBusyTime_SCH 10.311744
scalar SlicingScenario.node[3].veinsmobility startTime 4
scalar SlicingScenario.node[3].veinsmobility totalTime 91
scalar SlicingScenario.node[3].veinsmobility stopTime 96
scalar SlicingScenario.node[3].veinsmobility minSpeed 10.614486233462
scalar SlicingScenario.node[3].veinsmobility maxSpeed 11.107284131823
scalar SlicingScenario.node[3].veinsmobility totalDistance 980.70453901538
scalar SlicingScenario.node[3].veinsmobility totalCO2Emission 157.90969319098
scalar SlicingScenario.node[4].appl txPackets_37 0
scalar SlicingScenario.node[4].appl rxPackets_37 0
scalar SlicingScenario.node[4].appl rxNeighborPackets_37 0
scalar SlicingScenario.node[4].appl meanDelay_37 0
scalar SlicingScenario.node[4].appl meanJitter_37 0
scalar SlicingScenario.node[4].appl meanRxPacketSize_37 0
scalar SlicingScenario.node[4].appl meanTxPacketSize_37 0
scalar SlicingScenario.node[4].appl meanRxThroughput_37 0
scalar SlicingScenario.node[4].appl meanTxThroughput_37 0
scalar SlicingScenario.node[4].appl rxTimeOfService_37 0
scalar SlicingScenario.node[4].appl txTimeOfService_37 0
scalar SlicingScenario.node[4].appl txPackets_40_37 0
scalar SlicingScenario.node[4].appl rxPackets_40_37 205
scalar SlicingScenario.node[4].appl rxNeighborPackets_40_37 2531
scalar SlicingScenario.node[4].appl meanDelay_40_37 0.002072006332
scalar SlicingScenario.node[4].appl meanJitter_40_37 1.0368457e-05
scalar SlicingScenario.node[4].appl meanRxPacketSize_40_37 1510
scalar SlicingScenario.node[4].appl meanTxPacketSize_40_37 0
scalar SlicingScenario.node[4].appl meanRxThroughput_40_37 30348.036978206
scalar SlicingScenario.node[4].appl meanTxThroughput_40_37 0
scalar SlicingScenario.node[4].appl rxTimeOfService_40_37 81.600006016151
scalar SlicingScenario.node[4].appl txTimeOfService_40_37 0
scalar SlicingScenario.node[4].nic.phy80211p busyTime 0.11423791304348
scalar SlicingScenario.node[4].nic.phy80211p ncollisions 0
scalar SlicingScenario.node[4].nic.phy80211p UnderSensitivityPackets 621
scalar SlicingScenario.node[4].nic.mac1609_4 ReceivedUnicastPackets_CCH 0
scalar SlicingScenario.node[4].nic.mac1609_4 ReceivedBroadcasts_CCH 0
scalar SlicingScenario.node[4].nic.mac1609_4 SentPackets_CCH 0
scalar SlicingScenario.node[4].nic.mac1609_4 SentAcknowledgements_CCH 0
scalar SlicingScenario.node[4].nic.mac1609_4 SNIRLostPackets_CCH 0
scalar SlicingScenario.node[4].nic.mac1609_4 RXTXLostPackets_CCH 0
scalar SlicingScenario.node[4].nic.mac1609_4 TotalLostPackets_CCH 0
scalar SlicingScenario.node[4].nic.mac1609_4 DroppedPacketsInMac_CCH 0
scalar SlicingScenario.node[4].nic.mac1609_4 TooLittleTime_CCH 0
scalar SlicingScenario.node[4].nic.mac1609_4 TimesIntoBackoff_CCH 0
scalar SlicingScenario.node[4].nic.mac1609_4 SlotsBackoff_CCH 0
scalar SlicingScenario.node[4].nic.mac1609_4 NumInternalContention_CCH 0
scalar SlicingScenario.node[4].nic.mac1609_4 RemainingPacketsInEDCA_CCH 0
scalar SlicingScenario.node[4].nic.mac1609_4 totalBusyTime_CCH 0
scalar SlicingScenario.node[4].nic.mac1609_4 ReceivedUnicastPackets_SCH 0
scalar SlicingScenario.node[4].nic.mac1609_4 ReceivedBroadcasts_SCH 5092
scalar SlicingScenario.node[4].nic.mac1609_4 SentPackets_SCH 0
scalar SlicingScenario.node[4].nic.mac1609_4 SentAcknowledgements_SCH 0
scalar SlicingScenario.node[4].nic.mac1609_4 SNIRLostPackets_SCH 0
scalar SlicingScenario.node[4].nic.mac1609_4 RXTXLostPackets_SCH 0
scalar SlicingScenario.node[4].nic.mac1609_4 TotalLostPackets_SCH 0
scalar SlicingScenario.node[4].nic.mac1609_4 DroppedPacketsInMac_SCH 0
scalar SlicingScenario.node[4].nic.mac1609_4 TooLittleTime_SCH 0
scalar SlicingScenario.node[4].nic.mac1609_4 TimesIntoBackoff_SCH 0
scalar SlicingScenario.node[4].nic.mac1609_4 SlotsBackoff_SCH 0
scalar SlicingScenario.node[4].nic.mac1609_4 NumInternalContention_SCH 0
scalar SlicingScenario.node[4].nic.mac1609_4 RemainingPacketsInEDCA_SCH 0
scalar SlicingScenario.node[4].nic.mac1609_4 totalBusyTime_SCH 10.509888
scalar SlicingScenario.node[4].veinsmobility startTime 5
scalar SlicingScenario.node[4].veinsmobility totalTime 91
scalar SlicingScenario.node[4].veinsmobility stopTime 97
scalar SlicingScenario.node[4].veinsmobility minSpeed 10.611242294093
scalar SlicingScenario.node[4].veinsmobility maxSpeed 11.100692779655
scalar SlicingScenario.node[4].veinsmobility totalDistance 977.66254027344
scalar SlicingScenario.node[4].veinsmobility totalCO2Emission 159.62156770934
scalar SlicingScenario.node[5].appl txPackets_43 0
scalar SlicingScenario.node[5].appl rxPackets_43 0
scalar SlicingScenario.node[5].appl rxNeighborPackets_43 0
scalar SlicingScenario.node[5].appl meanDelay_43 0
scalar SlicingScenario.node[5].appl meanJitter_43 0
scalar SlicingScenario.node[5].appl meanRxPacketSize_43 0
scalar SlicingScenario.node[5].appl meanTxPacketSize_43 0
scalar SlicingScenario.node[5].appl meanRxThroughput_43 0
scalar SlicingScenario.node[5].appl meanTxThroughput_43 0
scalar SlicingScenario.node[5].appl rxTimeOfService_43 0
scalar SlicingScenario.node[5].appl txTimeOfService_43 0
scalar SlicingScenario.node[5].appl txPackets_41_43 0
scalar SlicingScenario.node[5].appl rxPackets_41_43 203
scalar SlicingScenario.node[5].appl rxNeighborPackets_41_43 2202
scalar SlicingScenario.node[5].appl meanDelay_41_43 0.002076353466
scalar SlicingScenario.node[5].appl meanJitter_41_43 1.3488975e-05
scalar SlicingScenario.node[5].appl meanRxPacketSize_41_43 1510
scalar SlicingScenario.node[5].appl meanTxPacketSize_41_43 0
scalar SlicingScenario.node[5].appl meanRxThroughput_41_43 30349.269046859
scalar SlicingScenario.node[5].appl meanTxThroughput_41_43 0
scalar SlicingScenario.node[5].appl rxTimeOfService_41_43 80.800628055118
scalar SlicingScenario.node[5].appl txTimeOfService_41_43 0
scalar SlicingScenario.node[5].nic.phy80211p busyTime 0.11675060869566
scalar SlicingScenario.node[5].nic.phy80211p ncollisions 0
scalar SlicingScenario.node[5].nic.phy80211p UnderSensitivityPackets 619
scalar SlicingScenario.node[5].nic.mac1609_4 ReceivedUnicastPackets_CCH 0
scalar SlicingScenario.node[5].nic.mac1609_4 ReceivedBroadcasts_CCH 2
scalar SlicingScenario.node[5].nic.mac1609_4 SentPackets_CCH 0
scalar SlicingScenario.node[5].nic.mac1609_4 SentAcknowledgements_CCH 0
scalar SlicingScenario.node[5].nic.mac1609_4 SNIRLostPackets_CCH 0
scalar SlicingScenario.node[5].nic.mac1609_4 RXTXLostPackets_CCH 0
scalar SlicingScenario.node[5].nic.mac1609_4 TotalLostPackets_CCH 0
scalar SlicingScenario.node[5].nic.mac1609_4 DroppedPacketsInMac_CCH 0
scalar SlicingScenario.node[5].nic.mac1609_4 TooLittleTime_CCH 0
scalar SlicingScenario.node[5].nic.mac1609_4 TimesIntoBackoff_CCH 0
scalar SlicingScenario.node[5].nic.mac1609_4 SlotsBackoff_CCH 0
scalar SlicingScenario.node[5].nic.mac1609_4 NumInternalContention_CCH 0
scalar SlicingScenario.node[5].nic.mac1609_4 RemainingPacketsInEDCA_CCH 0
scalar SlicingScenario.node[5].nic.mac1609_4 totalBusyTime_CCH 0.008191050638
scalar SlicingScenario.node[5].nic.mac1609_4 ReceivedUnicastPackets_SCH 0
scalar SlicingScenario.node[5].nic.mac1609_4 ReceivedBroadcasts_SCH 5202
scalar SlicingScenario.node[5].nic.mac1609_4 SentPackets_SCH 0
scalar SlicingScenario.node[5].nic.mac1609_4 SentAcknowledgements_SCH 0
scalar SlicingScenario.node[5].nic.mac1609_4 SNIRLostPackets_SCH 0
scalar SlicingScenario.node[5].nic.mac1609_4 RXTXLostPackets_SCH 0
scalar SlicingScenario.node[5].nic.mac1609_4 TotalLostPackets_SCH 0
scalar SlicingScenario.node[5].nic.mac1609_4 DroppedPacketsInMac_SCH 0
scalar SlicingScenario.node[5].nic.mac1609_4 TooLittleTime_SCH 0
scalar SlicingScenario.node[5].nic.mac1609_4 TimesIntoBackoff_SCH 0
scalar SlicingScenario.node[5].nic.mac1609_4 SlotsBackoff_SCH 0
scalar SlicingScenario.node[5].nic.mac1609_4 NumInternalContention_SCH 0
scalar SlicingScenario.node[5].nic.mac1609_4 RemainingPacketsInEDCA_SCH 0
scalar SlicingScenario.node[5].nic.mac1609_4 totalBusyTime_SCH 10.736928
scalar SlicingScenario.node[5].veinsmobility startTime 6
scalar SlicingScenario.node[5].veinsmobility totalTime 91
scalar SlicingScenario.node[5].veinsmobility stopTime 98
scalar SlicingScenario.node[5].veinsmobility minSpeed 10.614536202061
scalar SlicingScenario.node[5].veinsmobility maxSpeed 11.090023409706
scalar SlicingScenario.node[5].veinsmobility totalDistance 978.31088200871
scalar SlicingScenario.node[5].veinsmobility totalCO2Emission 158.9194796675
scalar SlicingScenario.node[6].appl txPackets_49 0
scalar SlicingScenario.node[6].appl rxPackets_49 0
scalar SlicingScenario.node[6].appl rxNeighborPackets_49 0
scalar SlicingScenario.node[6].appl meanDelay_49 0
scalar SlicingScenario.node[6].appl meanJitter_49 0
scalar SlicingScenario.node[6].appl meanRxPacketSize_49 0
scalar SlicingScenario.node[6].appl meanTxPacketSize_49 0
scalar SlicingScenario.node[6].appl meanRxThroughput_49 0
scalar SlicingScenario.node[6].appl meanTxThroughput_49 0
scalar SlicingScenario.node[6].appl rxTimeOfService_49 0
scalar SlicingScenario.node[6].appl txTimeOfService_49 0
scalar SlicingScenario.node[6].appl txPackets_41_49 0
scalar SlicingScenario.node[6].appl rxPackets_41_49 198
scalar SlicingScenario.node[6].appl rxNeighborPackets_41_49 2248
scalar SlicingScenario.node[6].appl meanDelay_41_49 0.004171725912
scalar SlicingScenario.node[6].appl meanJitter_41_49 7.1371227e-05
scalar SlicingScenario.node[6].appl meanRxPacketSize_41_49 1510
scalar SlicingScenario.node[6].appl meanTxPacketSize_41_49 0
scalar SlicingScenario.node[6].appl meanRxThroughput_41_49 30351.726405901
scalar SlicingScenario.node[6].appl meanTxThroughput_41_49 0
scalar SlicingScenario.node[6].appl rxTimeOfService_41_49 78.804084091078
scalar SlicingScenario.node[6].appl txTimeOfService_41_49 0
scalar SlicingScenario.node[6].nic.phy80211p busyTime 0.11890434782609
scalar SlicingScenario.node[6].nic.phy80211p ncollisions 0
scalar SlicingScenario.node[6].nic.phy80211p UnderSensitivityPackets 644
scalar SlicingScenario.node[6].nic.mac1609_4 ReceivedUnicastPackets_CCH 0
scalar SlicingScenario.node[6].nic.mac1609_4 ReceivedBroadcasts_CCH 0
scalar SlicingScenario.node[6].nic.mac1609_4 SentPackets_CCH 0
scalar SlicingScenario.node[6].nic.mac1609_4 SentAcknowledgements_CCH 0
scalar SlicingScenario.node[6].nic.mac1609_4 SNIRLostPackets_CCH 0
scalar SlicingScenario.node[6].nic.mac1609_4 RXTXLostPackets_CCH 0
scalar SlicingScenario.node[6].nic.mac1609_4 TotalLostPackets_CCH 0
scalar SlicingScenario.node[6].nic.mac1609_4 DroppedPacketsInMac_CCH 0
scalar SlicingScenario.node[6].nic.mac1609_4 TooLittleTime_CCH 0
scalar SlicingScenario.node[6].nic.mac1609_4 TimesIntoBackoff_CCH 0
scalar SlicingScenario.node[6].nic.mac1609_4 SlotsBackoff_CCH 0
scalar SlicingScenario.node[6].nic.mac1609_4 NumInternalContention_CCH 0
scalar SlicingScenario.node[6].nic.mac1609_4 RemainingPacketsInEDCA_CCH 0
scalar SlicingScenario.node[6].nic.mac1609_4 totalBusyTime_CCH 0
scalar SlicingScenario.node[6].nic.mac1609_4 ReceivedUnicastPackets_SCH 0
scalar SlicingScenario.node[6].nic.mac1609_4 ReceivedBroadcasts_SCH 5300
scalar SlicingScenario.node[6].nic.mac1609_4 SentPackets_SCH 0
scalar SlicingScenario.node[6].nic.mac1609_4 SentAcknowledgements_SCH 0
scalar SlicingScenario.node[6].nic.mac1609_4 SNIRLostPackets_SCH 0
scalar SlicingScenario.node[6].nic.mac1609_4 RXTXLostPackets_SCH 0
scalar SlicingScenario.node[6].nic.mac1609_4 TotalLostPackets_SCH 0
scalar SlicingScenario.node[6].nic.mac1609_4 DroppedPacketsInMac_SCH 0
scalar SlicingScenario.node[6].nic.mac1609_4 TooLittleTime_SCH 0
scalar SlicingScenario.node[6].nic.mac1609_4 TimesIntoBackoff_SCH 0
scalar SlicingScenario.node[6].nic.mac1609_4 SlotsBackoff_SCH 0
scalar SlicingScenario.node[6].nic.mac1609_4 NumInternalContention_SCH 0
scalar SlicingScenario.node[6].nic.mac1609_4 RemainingPacketsInEDCA_SCH 0
scalar SlicingScenario.node[6].nic.mac1609_4 totalBusyTime_SCH 10.9392
scalar SlicingScenario.node[6].veinsmobility startTime 7
scalar SlicingScenario.node[6].veinsmobility totalTime 91
scalar SlicingScenario.node[6].veinsmobility stopTime 99
scalar SlicingScenario.node[6].veinsmobility minSpeed 10.610321913511
scalar SlicingScenario.node[6].veinsmobility maxSpeed 11.104115752866
scalar SlicingScenario.node[6].veinsmobility totalDistance 978.82107544925
scalar SlicingScenario.node[6].veinsmobility totalCO2Emission 158.67272873699
scalar SlicingScenario.node[7].appl txPackets_55 0
scalar SlicingScenario.node[7].appl rxPackets_55 0
scalar SlicingScenario.node[7].appl rxNeighborPackets_55 0
scalar SlicingScenario.node[7].appl meanDelay_55 0
scalar SlicingScenario.node[7].appl meanJitter_55 0
scalar SlicingScenario.node[7].appl meanRxPacketSize_55 0
scalar SlicingScenario.node[7].appl meanTxPacketSize_55 0
scalar SlicingScenario.node[7].appl meanRxThroughput_55 0
scalar SlicingScenario.node[7].appl meanTxThroughput_55 0
scalar SlicingScenario.node[7].appl rxTimeOfService_55 0
scalar SlicingScenario.node[7].appl txTimeOfService_55 0
scalar SlicingScenario.node[7].appl txPackets_41_55 0
scalar SlicingScenario.node[7].appl rxPackets_41_55 196
scalar SlicingScenario.node[7].appl rxNeighborPackets_41_55 2301
scalar SlicingScenario.node[7].appl meanDelay_41_55 0.056270565777
scalar SlicingScenario.node[7].appl meanJitter_41_55 0.000322793833
scalar SlicingScenario.node[7].appl meanRxPacketSize_41_55 1510
scalar SlicingScenario.node[7].appl meanTxPacketSize_41_55 0
scalar SlicingScenario.node[7].appl meanRxThroughput_41_55 30354.841391496
scalar SlicingScenario.node[7].appl meanTxThroughput_41_55 0
scalar SlicingScenario.node[7].appl rxTimeOfService_41_55 78.000078124714
scalar SlicingScenario.node[7].appl txTimeOfService_41_55 0
scalar SlicingScenario.node[7].nic.phy80211p busyTime 0.12139460869566
scalar SlicingScenario.node[7].nic.phy80211p ncollisions 0
scalar SlicingScenario.node[7].nic.phy80211p UnderSensitivityPackets 642
scalar SlicingScenario.node[7].nic.mac1609_4 ReceivedUnicastPackets_CCH 0
scalar SlicingScenario.node[7].nic.mac1609_4 ReceivedBroadcasts_CCH 0
scalar SlicingScenario.node[7].nic.mac1609_4 SentPackets_CCH 0
scalar SlicingScenario.node[7].nic.mac1609_4 SentAcknowledgements_CCH 0
scalar SlicingScenario.node[7].nic.mac1609_4 SNIRLostPackets_CCH 0
scalar SlicingScenario.node[7].nic.mac1609_4 RXTXLostPackets_CCH 0
scalar SlicingScenario.node[7].nic.mac1609_4 TotalLostPackets_CCH 0
scalar SlicingScenario.node[7].nic.mac1609_4 DroppedPacketsInMac_CCH 0
scalar SlicingScenario.node[7].nic.mac1609_4 TooLittleTime_CCH 0
scalar SlicingScenario.node[7].nic.mac1609_4 TimesIntoBackoff_CCH 0
scalar SlicingScenario.node[7].nic.mac1609_4 SlotsBackoff_CCH 0
scalar SlicingScenario.node[7].nic.mac1609_4 NumInternalContention_CCH 0
scalar SlicingScenario.node[7].nic.mac1609_4 RemainingPacketsInEDCA_CCH 0
scalar SlicingScenario.node[7].nic.mac1609_4 totalBusyTime_CCH 0
scalar SlicingScenario.node[7].nic.mac1609_4 ReceivedUnicastPackets_SCH 0
scalar SlicingScenario.node[7].nic.mac1609_4 ReceivedBroadcasts_SCH 5411
scalar SlicingScenario.node[7].nic.mac1609_4 SentPackets_SCH 0
scalar SlicingScenario.node[7].nic.mac1609_4 SentAcknowledgements_SCH 0
scalar SlicingScenario.node[7].nic.mac1609_4 SNIRLostPackets_SCH 0
scalar SlicingScenario.node[7].nic.mac1609_4 RXTXLostPackets_SCH 0
scalar SlicingScenario.node[7].nic.mac1609_4 TotalLostPackets_SCH 0
scalar SlicingScenario.node[7].nic.mac1609_4 DroppedPacketsInMac_SCH 0
scalar SlicingScenario.node[7].nic.mac1609_4 TooLittleTime_SCH 0
scalar SlicingScenario.node[7].nic.mac1609_4 TimesIntoBackoff_SCH 0
scalar SlicingScenario.node[7].nic.mac1609_4 SlotsBackoff_SCH 0
scalar SlicingScenario.node[7].nic.mac1609_4 NumInternalContention_SCH 0
scalar SlicingScenario.node[7].nic.mac1609_4 RemainingPacketsInEDCA_SCH 0
scalar SlicingScenario.node[7].nic.mac1609_4 totalBusyTime_SCH 11.168304
scalar SlicingScenario.node[7].veinsmobility startTime 8
scalar SlicingScenario.node[7].veinsmobility totalTime 91
scalar SlicingScenario.node[7].veinsmobility stopTime 100
scalar SlicingScenario.node[7].veinsmobility minSpeed 10.61631117099
scalar SlicingScenario.node[7].veinsmobility maxSpeed 11.103299964583
scalar SlicingScenario.node[7].veinsmobility totalDistance 979.03282906589
scalar SlicingScenario.node[7].veinsmobility totalCO2Emission 159.44853685977
scalar SlicingScenario.node[9].appl txPackets_67 0
scalar SlicingScenario.node[9].appl rxPackets_67 0
scalar SlicingScenario.node[9].appl rxNeighborPackets_67 0
scalar SlicingScenario.node[9].appl meanDelay_67 0
scalar SlicingScenario.node[9].appl meanJitter_67 0
scalar SlicingScenario.node[9].appl meanRxPacketSize_67 0
scalar SlicingScenario.node[9].appl meanTxPacketSize_67 0
scalar SlicingScenario.node[9].appl meanRxThroughput_67 0
scalar SlicingScenario.node[9].appl meanTxThroughput_67 0
scalar SlicingScenario.node[9].appl rxTimeOfService_67 0
scalar SlicingScenario.node[9].appl txTimeOfService_67 0
scalar SlicingScenario.node[9].appl txPackets_41_67 0
scalar SlicingScenario.node[9].appl rxPackets_41_67 193
scalar SlicingScenario.node[9].appl rxNeighborPackets_41_67 2394
scalar SlicingScenario.node[9].appl meanDelay_41_67 0.002069949335
scalar SlicingScenario.node[9].appl meanJitter_41_67 1.083572e-05
scalar SlicingScenario.node[9].appl meanRxPacketSize_41_67 1510
scalar SlicingScenario.node[9].appl meanTxPacketSize_41_67 0
scalar SlicingScenario.node[9].appl meanRxThroughput_41_67 30357.288424937
scalar SlicingScenario.node[9].appl meanTxThroughput_41_67 0
scalar SlicingScenario.node[9].appl rxTimeOfService_41_67 76.800008201155
scalar SlicingScenario.node[9].appl txTimeOfService_41_67 0
scalar SlicingScenario.node[9].nic.phy80211p busyTime 0.12606104347827
scalar SlicingScenario.node[9].nic.phy80211p ncollisions 0
scalar SlicingScenario.node[9].nic.phy80211p UnderSensitivityPackets 663
scalar SlicingScenario.node[9].nic.mac1609_4 ReceivedUnicastPackets_CCH 0
scalar SlicingScenario.node[9].nic.mac1609_4 ReceivedBroadcasts_CCH 0
scalar SlicingScenario.node[9].nic.mac1609_4 SentPackets_CCH 0
scalar SlicingScenario.node[9].nic.mac1609_4 SentAcknowledgements_CCH 0
scalar SlicingScenario.node[9].nic.mac1609_4 SNIRLostPackets_CCH 0
scalar SlicingScenario.node[9].nic.mac1609_4 RXTXLostPackets_CCH 0
scalar SlicingScenario.node[9].nic.mac1609_4 TotalLostPackets_CCH 0
scalar SlicingScenario.node[9].nic.mac1609_4 DroppedPacketsInMac_CCH 0
scalar SlicingScenario.node[9].nic.mac1609_4 TooLittleTime_CCH 0
scalar SlicingScenario.node[9].nic.mac1609_4 TimesIntoBackoff_CCH 0
scalar SlicingScenario.node[9].nic.mac1609_4 SlotsBackoff_CCH 0
scalar SlicingScenario.node[9].nic.mac1609_4 NumInternalContention_CCH 0
scalar SlicingScenario.node[9].nic.mac1609_4 RemainingPacketsInEDCA_CCH 0
scalar SlicingScenario.node[9].nic.mac1609_4 totalBusyTime_CCH 0
scalar SlicingScenario.node[9].nic.mac1609_4 ReceivedUnicastPackets_SCH 0
scalar SlicingScenario.node[9].nic.mac1609_4 ReceivedBroadcasts_SCH 5619
scalar SlicingScenario.node[9].nic.mac1609_4 SentPackets_SCH 0
scalar SlicingScenario.node[9].nic.mac1609_4 SentAcknowledgements_SCH 0
scalar SlicingScenario.node[9].nic.mac1609_4 SNIRLostPackets_SCH 0
scalar SlicingScenario.node[9].nic.mac1609_4 RXTXLostPackets_SCH 0
scalar SlicingScenario.node[9].nic.mac1609_4 TotalLostPackets_SCH 0
scalar SlicingScenario.node[9].nic.mac1609_4 DroppedPacketsInMac_SCH 0
scalar SlicingScenario.node[9].nic.mac1609_4 TooLittleTime_SCH 0
scalar SlicingScenario.node[9].nic.mac1609_4 TimesIntoBackoff_SCH 0
scalar SlicingScenario.node[9].nic.mac1609_4 SlotsBackoff_SCH 0
scalar SlicingScenario.node[9].nic.mac1609_4 NumInternalContention_SCH 0
scalar SlicingScenario.node[9].nic.mac1609_4 RemainingPacketsInEDCA_SCH 0
scalar SlicingScenario.node[9].nic.mac1609_4 totalBusyTime_SCH 11.597616
scalar SlicingScenario.node[9].veinsmobility startTime 10
scalar SlicingScenario.node[9].veinsmobility totalTime 91
scalar SlicingScenario.node[9].veinsmobility stopTime 102
scalar SlicingScenario.node[9].veinsmobility minSpeed 10.621429989245
scalar SlicingScenario.node[9].veinsmobility maxSpeed 11.103788288557
scalar SlicingScenario.node[9].veinsmobility totalDistance 979.91041299521
scalar SlicingScenario.node[9].veinsmobility totalCO2Emission 158.46221236704
scalar SlicingScenario.node[8].appl txPackets_61 0
scalar SlicingScenario.node[8].appl rxPackets_61 0
scalar SlicingScenario.node[8].appl rxNeighborPackets_61 0
scalar SlicingScenario.node[8].appl meanDelay_61 0
scalar SlicingScenario.node[8].appl meanJitter_61 0
scalar SlicingScenario.node[8].appl meanRxPacketSize_61 0
scalar SlicingScenario.node[8].appl meanTxPacketSize_61 0
scalar SlicingScenario.node[8].appl meanRxThroughput_61 0
scalar SlicingScenario.node[8].appl meanTxThroughput_61 0
scalar SlicingScenario.node[8].appl rxTimeOfService_61 0
scalar SlicingScenario.node[8].appl txTimeOfService_61 0
scalar SlicingScenario.node[8].appl txPackets_40_61 0
scalar SlicingScenario.node[8].appl rxPackets_40_61 197
scalar SlicingScenario.node[8].appl rxNeighborPackets_40_61 2835
scalar SlicingScenario.node[8].appl meanDelay_40_61 0.003730338839
scalar SlicingScenario.node[8].appl meanJitter_40_61 5.2966173e-05
scalar SlicingScenario.node[8].appl meanRxPacketSize_40_61 1510
scalar SlicingScenario.node[8].appl meanTxPacketSize_40_61 0
scalar SlicingScenario.node[8].appl meanRxThroughput_40_61 30354.101710882
scalar SlicingScenario.node[8].appl meanTxThroughput_40_61 0
scalar SlicingScenario.node[8].appl rxTimeOfService_40_61 78.399948141007
scalar SlicingScenario.node[8].appl txTimeOfService_40_61 0
scalar SlicingScenario.node[8].nic.phy80211p busyTime 0.12470554838711
scalar SlicingScenario.node[8].nic.phy80211p ncollisions 0
scalar SlicingScenario.node[8].nic.phy80211p UnderSensitivityPackets 672
scalar SlicingScenario.node[8].nic.mac1609_4 ReceivedUnicastPackets_CCH 0
scalar SlicingScenario.node[8].nic.mac1609_4 ReceivedBroadcasts_CCH 0
scalar SlicingScenario.node[8].nic.mac1609_4 SentPackets_CCH 0
scalar SlicingScenario.node[8].nic.mac1609_4 SentAcknowledgements_CCH 0
scalar SlicingScenario.node[8].nic.mac1609_4 SNIRLostPackets_CCH 0
scalar SlicingScenario.node[8].nic.mac1609_4 RXTXLostPackets_CCH 0
scalar SlicingScenario.node[8].nic.mac1609_4 TotalLostPackets_CCH 0
scalar SlicingScenario.node[8].nic.mac1609_4 DroppedPacketsInMac_CCH 0
scalar SlicingScenario.node[8].nic.mac1609_4 TooLittleTime_CCH 0
scalar SlicingScenario.node[8].nic.mac1609_4 TimesIntoBackoff_CCH 0
scalar SlicingScenario.node[8].nic.mac1609_4 SlotsBackoff_CCH 0
scalar SlicingScenario.node[8].nic.mac1609_4 NumInternalContention_CCH 0
scalar SlicingScenario.node[8].nic.mac1609_4 RemainingPacketsInEDCA_CCH 0
scalar SlicingScenario.node[8].nic.mac1609_4 totalBusyTime_CCH 0
scalar SlicingScenario.node[8].nic.mac1609_4 ReceivedUnicastPackets_SCH 0
scalar SlicingScenario.node[8].nic.mac1609_4 ReceivedBroadcasts_SCH 5619
scalar SlicingScenario.node[8].nic.mac1609_4 SentPackets_SCH 0
scalar SlicingScenario.node[8].nic.mac1609_4 SentAcknowledgements_SCH 0
scalar SlicingScenario.node[8].nic.mac1609_4 SNIRLostPackets_SCH 0
scalar SlicingScenario.node[8].nic.mac1609_4 RXTXLostPackets_SCH 0
scalar SlicingScenario.node[8].nic.mac1609_4 TotalLostPackets_SCH 0
scalar SlicingScenario.node[8].nic.mac1609_4 DroppedPacketsInMac_SCH 0
scalar SlicingScenario.node[8].nic.mac1609_4 TooLittleTime_SCH 0
scalar SlicingScenario.node[8].nic.mac1609_4 TimesIntoBackoff_SCH 0
scalar SlicingScenario.node[8].nic.mac1609_4 SlotsBackoff_SCH 0
scalar SlicingScenario.node[8].nic.mac1609_4 NumInternalContention_SCH 0
scalar SlicingScenario.node[8].nic.mac1609_4 RemainingPacketsInEDCA_SCH 0
scalar SlicingScenario.node[8].nic.mac1609_4 totalBusyTime_SCH 11.597616
scalar SlicingScenario.node[8].veinsmobility startTime 9
scalar SlicingScenario.node[8].veinsmobility totalTime 92
scalar SlicingScenario.node[8].veinsmobility stopTime 102
scalar SlicingScenario.node[8].veinsmobility minSpeed 7.6083347631367
scalar SlicingScenario.node[8].veinsmobility maxSpeed 11.104983863551
scalar SlicingScenario.node[8].veinsmobility totalDistance 982.32710245543
scalar SlicingScenario.node[8].veinsmobility totalCO2Emission 168.25292980108
scalar SlicingScenario.node[10].appl txPackets_73 0
scalar SlicingScenario.node[10].appl rxPackets_73 0
scalar SlicingScenario.node[10].appl rxNeighborPackets_73 0
scalar SlicingScenario.node[10].appl meanDelay_73 0
scalar SlicingScenario.node[10].appl meanJitter_73 0
scalar SlicingScenario.node[10].appl meanRxPacketSize_73 0
scalar SlicingScenario.node[10].appl meanTxPacketSize_73 0
scalar SlicingScenario.node[10].appl meanRxThroughput_73 0
scalar SlicingScenario.node[10].appl meanTxThroughput_73 0
scalar SlicingScenario.node[10].appl rxTimeOfService_73 0
scalar SlicingScenario.node[10].appl txTimeOfService_73 0
scalar SlicingScenario.node[10].appl txPackets_41_73 0
scalar SlicingScenario.node[10].appl rxPackets_41_73 192
scalar SlicingScenario.node[10].appl rxNeighborPackets_41_73 2485
scalar SlicingScenario.node[10].appl meanDelay_41_73 0.00207286869
scalar SlicingScenario.node[10].appl meanJitter_41_73 1.0889345e-05
scalar SlicingScenario.node[10].appl meanRxPacketSize_41_73 1510
scalar SlicingScenario.node[10].appl meanTxPacketSize_41_73 0
scalar SlicingScenario.node[10].appl meanRxThroughput_41_73 30358.113501639
scalar SlicingScenario.node[10].appl meanTxThroughput_41_73 0
scalar SlicingScenario.node[10].appl rxTimeOfService_41_73 76.400004231975
scalar SlicingScenario.node[10].appl txTimeOfService_41_73 0
scalar SlicingScenario.node[10].nic.phy80211p busyTime 0.1293661935484
scalar SlicingScenario.node[10].nic.phy80211p ncollisions 0
scalar SlicingScenario.node[10].nic.phy80211p UnderSensitivityPackets 695
scalar SlicingScenario.node[10].nic.mac1609_4 ReceivedUnicastPackets_CCH 0
scalar SlicingScenario.node[10].nic.mac1609_4 ReceivedBroadcasts_CCH 2
scalar SlicingScenario.node[10].nic.mac1609_4 SentPackets_CCH 0
scalar SlicingScenario.node[10].nic.mac1609_4 SentAcknowledgements_CCH 0
scalar SlicingScenario.node[10].nic.mac1609_4 SNIRLostPackets_CCH 0
scalar SlicingScenario.node[10].nic.mac1609_4 RXTXLostPackets_CCH 0
scalar SlicingScenario.node[10].nic.mac1609_4 TotalLostPackets_CCH 0
scalar SlicingScenario.node[10].nic.mac1609_4 DroppedPacketsInMac_CCH 0
scalar SlicingScenario.node[10].nic.mac1609_4 TooLittleTime_CCH 0
scalar SlicingScenario.node[10].nic.mac1609_4 TimesIntoBackoff_CCH 0
scalar SlicingScenario.node[10].nic.mac1609_4 SlotsBackoff_CCH 0
scalar SlicingScenario.node[10].nic.mac1609_4 NumInternalContention_CCH 0
scalar SlicingScenario.node[10].nic.mac1609_4 RemainingPacketsInEDCA_CCH 0
scalar SlicingScenario.node[10].nic.mac1609_4 totalBusyTime_CCH 0.008246191231
scalar SlicingScenario.node[10].nic.mac1609_4 ReceivedUnicastPackets_SCH 0
scalar SlicingScenario.node[10].nic.mac1609_4 ReceivedBroadcasts_SCH 5827
scalar SlicingScenario.node[10].nic.mac1609_4 SentPackets_SCH 0
scalar SlicingScenario.node[10].nic.mac1609_4 SentAcknowledgements_SCH 0
scalar SlicingScenario.node[10].nic.mac1609_4 SNIRLostPackets_SCH 0
scalar SlicingScenario.node[10].nic.mac1609_4 RXTXLostPackets_SCH 0
scalar SlicingScenario.node[10].nic.mac1609_4 TotalLostPackets_SCH 0
scalar SlicingScenario.node[10].nic.mac1609_4 DroppedPacketsInMac_SCH 0
scalar SlicingScenario.node[10].nic.mac1609_4 TooLittleTime_SCH 0
scalar SlicingScenario.node[10].nic.mac1609_4 TimesIntoBackoff_SCH 0
scalar SlicingScenario.node[10].nic.mac1609_4 SlotsBackoff_SCH 0
scalar SlicingScenario.node[10].nic.mac1609_4 NumInternalContention_SCH 0
scalar SlicingScenario.node[10].nic.mac1609_4 RemainingPacketsInEDCA_SCH 0
scalar SlicingScenario.node[10].nic.mac1609_4 totalBusyTime_SCH 12.026928
scalar SlicingScenario.node[10].veinsmobility startTime 11
scalar SlicingScenario.node[10].veinsmobility totalTime 92
scalar SlicingScenario.node[10].veinsmobility stopTime 104
scalar SlicingScenario.node[10].veinsmobility minSpeed 8.3203381476207
scalar SlicingScenario.node[10].veinsmobility maxSpeed 11.102545898422
scalar SlicingScenario.node[10].veinsmobility totalDistance 984.4925629461
scalar SlicingScenario.node[10].veinsmobility totalCO2Emission 165.46099519911
scalar SlicingScenario.node[11].appl txPackets_79 0
scalar SlicingScenario.node[11].appl rxPackets_79 0
scalar SlicingScenario.node[11].appl rxNeighborPackets_79 0
scalar SlicingScenario.node[11].appl meanDelay_79 0
scalar SlicingScenario.node[11].appl meanJitter_79 0
scalar SlicingScenario.node[11].appl meanRxPacketSize_79 0
scalar SlicingScenario.node[11].appl meanTxPacketSize_79 0
scalar SlicingScenario.node[11].appl meanRxThroughput_79 0
scalar SlicingScenario.node[11].appl meanTxThroughput_79 0
scalar SlicingScenario.node[11].appl rxTimeOfService_79 0
scalar SlicingScenario.node[11].appl txTimeOfService_79 0
scalar SlicingScenario.node[11].appl txPackets_41_79 0
scalar SlicingScenario.node[11].appl rxPackets_41_79 187
scalar SlicingScenario.node[11].appl rxNeighborPackets_41_79 2490
scalar SlicingScenario.node[11].appl meanDelay_41_79 0.002073410068
scalar SlicingScenario.node[11].appl meanJitter_41_79 1.1368705e-05
scalar SlicingScenario.node[11].appl meanRxPacketSize_41_79 1510
scalar SlicingScenario.node[11].appl meanTxPacketSize_41_79 0
scalar SlicingScenario.node[11].appl meanRxThroughput_41_79 30362.363036054
scalar SlicingScenario.node[11].appl meanTxThroughput_41_79 0
scalar SlicingScenario.node[11].appl rxTimeOfService_41_79 74.40000626162
scalar SlicingScenario.node[11].appl txTimeOfService_41_79 0
scalar SlicingScenario.node[11].nic.phy80211p busyTime 0.1307723478261
scalar SlicingScenario.node[11].nic.phy80211p ncollisions 0
scalar SlicingScenario.node[11].nic.phy80211p UnderSensitivityPackets 683
scalar SlicingScenario.node[11].nic.mac1609_4 ReceivedUnicastPackets_CCH 0
scalar SlicingScenario.node[11].nic.mac1609_4 ReceivedBroadcasts_CCH 0
scalar SlicingScenario.node[11].nic.mac1609_4 SentPackets_CCH 0
scalar SlicingScenario.node[11].nic.mac1609_4 SentAcknowledgements_CCH 0
scalar SlicingScenario.node[11].nic.mac1609_4 SNIRLostPackets_CCH 0
scalar SlicingScenario.node[11].nic.mac1609_4 RXTXLostPackets_CCH 0
scalar SlicingScenario.node[11].nic.mac1609_4 TotalLostPackets_CCH 0
scalar SlicingScenario.node[11].nic.mac1609_4 DroppedPacketsInMac_CCH 0
scalar SlicingScenario.node[11].nic.mac1609_4 TooLittleTime_CCH 0
scalar SlicingScenario.node[11].nic.mac1609_4 TimesIntoBackoff_CCH 0
scalar SlicingScenario.node[11].nic.mac1609_4 SlotsBackoff_CCH 0
scalar SlicingScenario.node[11].nic.mac1609_4 NumInternalContention_CCH 0
scalar SlicingScenario.node[11].nic.mac1609_4 RemainingPacketsInEDCA_CCH 0
scalar SlicingScenario.node[11].nic.mac1609_4 totalBusyTime_CCH 0
scalar SlicingScenario.node[11].nic.mac1609_4 ReceivedUnicastPackets_SCH 0
scalar SlicingScenario.node[11].nic.mac1609_4 ReceivedBroadcasts_SCH 5829
scalar SlicingScenario.node[11].nic.mac1609_4 SentPackets_SCH 0
scalar SlicingScenario.node[11].nic.mac1609_4 SentAcknowledgements_SCH 0
scalar SlicingScenario.node[11].nic.mac1609_4 SNIRLostPackets_SCH 0
scalar SlicingScenario.node[11].nic.mac1609_4 RXTXLostPackets_SCH 0
scalar SlicingScenario.node[11].nic.mac1609_4 TotalLostPackets_SCH 0
scalar SlicingScenario.node[11].nic.mac1609_4 DroppedPacketsInMac_SCH 0
scalar SlicingScenario.node[11].nic.mac1609_4 TooLittleTime_SCH 0
scalar SlicingScenario.node[11].nic.mac1609_4 TimesIntoBackoff_SCH 0
scalar SlicingScenario.node[11].nic.mac1609_4 SlotsBackoff_SCH 0
scalar SlicingScenario.node[11].nic.mac1609_4 NumInternalContention_SCH 0
scalar SlicingScenario.node[11].nic.mac1609_4 RemainingPacketsInEDCA_SCH 0
scalar SlicingScenario.node[11].nic.mac1609_4 totalBusyTime_SCH 12.031056
scalar SlicingScenario.node[11].veinsmobility startTime 12
scalar SlicingScenario.node[11].veinsmobility totalTime 91
scalar SlicingScenario.node[11].veinsmobility stopTime 104
scalar SlicingScenario.node[11].veinsmobility minSpeed 10.618114351891
scalar SlicingScenario.node[11].veinsmobility maxSpeed 11.099971933072
scalar SlicingScenario.node[11].veinsmobility totalDistance 977.51594104951
scalar SlicingScenario.node[11].veinsmobility totalCO2Emission 158.80171661855
scalar SlicingScenario.node[12].appl txPackets_85 0
scalar SlicingScenario.node[12].appl rxPackets_85 0
scalar SlicingScenario.node[12].appl rxNeighborPackets_85 0
scalar SlicingScenario.node[12].appl meanDelay_85 0
scalar SlicingScenario.node[12].appl meanJitter_85 0
scalar SlicingScenario.node[12].appl meanRxPacketSize_85 0
scalar SlicingScenario.node[12].appl meanTxPacketSize_85 0
scalar SlicingScenario.node[12].appl meanRxThroughput_85 0
scalar SlicingScenario.node[12].appl meanTxThroughput_85 0
scalar SlicingScenario.node[12].appl rxTimeOfService_85 0
scalar SlicingScenario.node[12].appl txTimeOfService_85 0
scalar SlicingScenario.node[12].appl txPackets_40_85 0
scalar SlicingScenario.node[12].appl rxPackets_40_85 184
scalar SlicingScenario.node[12].appl rxNeighborPackets_40_85 3025
scalar SlicingScenario.node[12].appl meanDelay_40_85 0.002076338953
scalar SlicingScenario.node[12].appl meanJitter_40_85 1.1439076e-05
scalar SlicingScenario.node[12].appl meanRxPacketSize_40_85 1510
scalar SlicingScenario.node[12].appl meanTxPacketSize_40_85 0
scalar SlicingScenario.node[12].appl meanRxThroughput_40_85 30365.029270513
scalar SlicingScenario.node[12].appl meanTxThroughput_40_85 0
scalar SlicingScenario.node[12].appl rxTimeOfService_40_85 73.199995303758
scalar SlicingScenario.node[12].appl txTimeOfService_40_85 0
scalar SlicingScenario.node[12].nic.phy80211p busyTime 0.13292608695653
scalar SlicingScenario.node[12].nic.phy80211p ncollisions 0
scalar SlicingScenario.node[12].nic.phy80211p UnderSensitivityPackets 707
scalar SlicingScenario.node[12].nic.mac1609_4 ReceivedUnicastPackets_CCH 0
scalar SlicingScenario.node[12].nic.mac1609_4 ReceivedBroadcasts_CCH 2
scalar SlicingScenario.node[12].nic.mac1609_4 SentPackets_CCH 0
scalar SlicingScenario.node[12].nic.mac1609_4 SentAcknowledgements_CCH 0
scalar SlicingScenario.node[12].nic.mac1609_4 SNIRLostPackets_CCH 0
scalar SlicingScenario.node[12].nic.mac1609_4 RXTXLostPackets_CCH 0
scalar SlicingScenario.node[12].nic.mac1609_4 TotalLostPackets_CCH 0
scalar SlicingScenario.node[12].nic.mac1609_4 DroppedPacketsInMac_CCH 0
scalar SlicingScenario.node[12].nic.mac1609_4 TooLittleTime_CCH 0
scalar SlicingScenario.node[12].nic.mac1609_4 TimesIntoBackoff_CCH 0
scalar SlicingScenario.node[12].nic.mac1609_4 SlotsBackoff_CCH 0
scalar SlicingScenario.node[12].nic.mac1609_4 NumInternalContention_CCH 0
scalar SlicingScenario.node[12].nic.mac1609_4 RemainingPacketsInEDCA_CCH 0
scalar SlicingScenario.node[12].nic.mac1609_4 totalBusyTime_CCH 0.00824067818
scalar SlicingScenario.node[12].nic.mac1609_4 ReceivedUnicastPackets_SCH 0
scalar SlicingScenario.node[12].nic.mac1609_4 ReceivedBroadcasts_SCH 5923
scalar SlicingScenario.node[12].nic.mac1609_4 SentPackets_SCH 0
scalar SlicingScenario.node[12].nic.mac1609_4 SentAcknowledgements_SCH 0
scalar SlicingScenario.node[12].nic.mac1609_4 SNIRLostPackets_SCH 0
scalar SlicingScenario.node[12].nic.mac1609_4 RXTXLostPackets_SCH 0
scalar SlicingScenario.node[12].nic.mac1609_4 TotalLostPackets_SCH 0
scalar SlicingScenario.node[12].nic.mac1609_4 DroppedPacketsInMac_SCH 0
scalar SlicingScenario.node[12].nic.mac1609_4 TooLittleTime_SCH 0
scalar SlicingScenario.node[12].nic.mac1609_4 TimesIntoBackoff_SCH 0
scalar SlicingScenario.node[12].nic.mac1609_4 SlotsBackoff_SCH 0
scalar SlicingScenario.node[12].nic.mac1609_4 NumInternalContention_SCH 0
scalar SlicingScenario.node[12].nic.mac1609_4 RemainingPacketsInEDCA_SCH 0
scalar SlicingScenario.node[12].nic.mac1609_4 totalBusyTime_SCH 12.225072
scalar SlicingScenario.node[12].veinsmobility startTime 13
scalar SlicingScenario.node[12].veinsmobility totalTime 91
scalar SlicingScenario.node[12].veinsmobility stopTime 105
scalar SlicingScenario.node[12].veinsmobility minSpeed 10.618205148391
scalar SlicingScenario.node[12].veinsmobility maxSpeed 11.090928695062
scalar SlicingScenario.node[12].veinsmobility totalDistance 978.58689075307
scalar SlicingScenario.node[12].veinsmobility totalCO2Emission 157.80061097921
scalar SlicingScenario.node[13].appl txPackets_91 0
scalar SlicingScenario.node[13].appl rxPackets_91 0
scalar SlicingScenario.node[13].appl rxNeighborPackets_91 0
scalar SlicingScenario.node[13].appl meanDelay_91 0
scalar SlicingScenario.node[13].appl meanJitter_91 0
scalar SlicingScenario.node[13].appl meanRxPacketSize_91 0
scalar SlicingScenario.node[13].appl meanTxPacketSize_91 0
scalar SlicingScenario.node[13].appl meanRxThroughput_91 0
scalar SlicingScenario.node[13].appl meanTxThroughput_91 0
scalar SlicingScenario.node[13].appl rxTimeOfService_91 0
scalar SlicingScenario.node[13].appl txTimeOfService_91 0
scalar SlicingScenario.node[13].appl txPackets_41_91 0
scalar SlicingScenario.node[13].appl rxPackets_41_91 181
scalar SlicingScenario.node[13].appl rxNeighborPackets_41_91 2585
scalar SlicingScenario.node[13].appl meanDelay_41_91 0.002742834086
scalar SlicingScenario.node[13].appl meanJitter_41_91 3.7382687e-05
scalar SlicingScenario.node[13].appl meanRxPacketSize_41_91 1510
scalar SlicingScenario.node[13].appl meanTxPacketSize_41_91 0
scalar SlicingScenario.node[13].appl meanRxThroughput_41_91 30367.300611297
scalar SlicingScenario.node[13].appl meanTxThroughput_41_91 0
scalar SlicingScenario.node[13].appl rxTimeOfService_41_91 72.00113134806
scalar SlicingScenario.node[13].appl txTimeOfService_41_91 0
scalar SlicingScenario.node[13].nic.phy80211p busyTime 0.13546121739132
scalar SlicingScenario.node[13].nic.phy80211p ncollisions 0
scalar SlicingScenario.node[13].nic.phy80211p UnderSensitivityPackets 704
scalar SlicingScenario.node[13].nic.mac1609_4 ReceivedUnicastPackets_CCH 0
scalar SlicingScenario.node[13].nic.mac1609_4 ReceivedBroadcasts_CCH 0
scalar SlicingScenario.node[13].nic.mac1609_4 SentPackets_CCH 0
scalar SlicingScenario.node[13].nic.mac1609_4 SentAcknowledgements_CCH 0
scalar SlicingScenario.node[13].nic.mac1609_4 SNIRLostPackets_CCH 0
scalar SlicingScenario.node[13].nic.mac1609_4 RXTXLostPackets_CCH 0
scalar SlicingScenario.node[13].nic.mac1609_4 TotalLostPackets_CCH 0
scalar SlicingScenario.node[13].nic.mac1609_4 DroppedPacketsInMac_CCH 0
scalar SlicingScenario.node[13].nic.mac1609_4 TooLittleTime_CCH 0
scalar SlicingScenario.node[13].nic.mac1609_4 TimesIntoBackoff_CCH 0
scalar SlicingScenario.node[13].nic.mac1609_4 SlotsBackoff_CCH 0
scalar SlicingScenario.node[13].nic.mac1609_4 NumInternalContention_CCH 0
scalar SlicingScenario.node[13].nic.mac1609_4 RemainingPacketsInEDCA_CCH 0
scalar SlicingScenario.node[13].nic.mac1609_4 totalBusyTime_CCH 0
scalar SlicingScenario.node[13].nic.mac1609_4 ReceivedUnicastPackets_SCH 0
scalar SlicingScenario.node[13].nic.mac1609_4 ReceivedBroadcasts_SCH 6038
scalar SlicingScenario.node[13].nic.mac1609_4 SentPackets_SCH 0
scalar SlicingScenario.node[13].nic.mac1609_4 SentAcknowledgements_SCH 0
scalar SlicingScenario.node[13].nic.mac1609_4 SNIRLostPackets_SCH 0
scalar SlicingScenario.node[13].nic.mac1609_4 RXTXLostPackets_SCH 0
scalar SlicingScenario.node[13].nic.mac1609_4 TotalLostPackets_SCH 0
scalar SlicingScenario.node[13].nic.mac1609_4 DroppedPacketsInMac_SCH 0
scalar SlicingScenario.node[13].nic.mac1609_4 TooLittleTime_SCH 0
scalar SlicingScenario.node[13].nic.mac1609_4 TimesIntoBackoff_SCH 0
scalar SlicingScenario.node[13].nic.mac1609_4 SlotsBackoff_SCH 0
scalar SlicingScenario.node[13].nic.mac1609_4 NumInternalContention_SCH 0
scalar SlicingScenario.node[13].nic.mac1609_4 RemainingPacketsInEDCA_SCH 0
scalar SlicingScenario.node[13].nic.mac1609_4 totalBusyTime_SCH 12.462432
scalar SlicingScenario.node[13].veinsmobility startTime 14
scalar SlicingScenario.node[13].veinsmobility totalTime 91
scalar SlicingScenario.node[13].veinsmobility stopTime 106
scalar SlicingScenario.node[13].veinsmobility minSpeed 10.612526830067
scalar SlicingScenario.node[13].veinsmobility maxSpeed 11.109690182973
scalar SlicingScenario.node[13].veinsmobility totalDistance 980.70896777615
scalar SlicingScenario.node[13].veinsmobility totalCO2Emission 158.51726237755
scalar SlicingScenario.node[14].appl txPackets_97 0
scalar SlicingScenario.node[14].appl rxPackets_97 0
scalar SlicingScenario.node[14].appl rxNeighborPackets_97 0
scalar SlicingScenario.node[14].appl meanDelay_97 0
scalar SlicingScenario.node[14].appl meanJitter_97 0
scalar SlicingScenario.node[14].appl meanRxPacketSize_97 0
scalar SlicingScenario.node[14].appl meanTxPacketSize_97 0
scalar SlicingScenario.node[14].appl meanRxThroughput_97 0
scalar SlicingScenario.node[14].appl meanTxThroughput_97 0
scalar SlicingScenario.node[14].appl rxTimeOfService_97 0
scalar SlicingScenario.node[14].appl txTimeOfService_97 0
scalar SlicingScenario.node[14].appl txPackets_41_97 0
scalar SlicingScenario.node[14].appl rxPackets_41_97 182
scalar SlicingScenario.node[14].appl rxNeighborPackets_41_97 2674
scalar SlicingScenario.node[14].appl meanDelay_41_97 0.002089585063
scalar SlicingScenario.node[14].appl meanJitter_41_97 2.0058446e-05
scalar SlicingScenario.node[14].appl meanRxPacketSize_41_97 1510
scalar SlicingScenario.node[14].appl meanTxPacketSize_41_97 0
scalar SlicingScenario.node[14].appl meanRxThroughput_41_97 30366.226153253
scalar SlicingScenario.node[14].appl meanTxThroughput_41_97 0
scalar SlicingScenario.node[14].appl rxTimeOfService_41_97 72.401489368624
scalar SlicingScenario.node[14].appl txTimeOfService_41_97 0
scalar SlicingScenario.node[14].nic.phy80211p busyTime 0.13859870967743
scalar SlicingScenario.node[14].nic.phy80211p ncollisions 0
scalar SlicingScenario.node[14].nic.phy80211p UnderSensitivityPackets 744
scalar SlicingScenario.node[14].nic.mac1609_4 ReceivedUnicastPackets_CCH 0
scalar SlicingScenario.node[14].nic.mac1609_4 ReceivedBroadcasts_CCH 0
scalar SlicingScenario.node[14].nic.mac1609_4 SentPackets_CCH 0
scalar SlicingScenario.node[14].nic.mac1609_4 SentAcknowledgements_CCH 0
scalar SlicingScenario.node[14].nic.mac1609_4 SNIRLostPackets_CCH 0
scalar SlicingScenario.node[14].nic.mac1609_4 RXTXLostPackets_CCH 0
scalar SlicingScenario.node[14].nic.mac1609_4 TotalLostPackets_CCH 0
scalar SlicingScenario.node[14].nic.mac1609_4 DroppedPacketsInMac_CCH 0
scalar SlicingScenario.node[14].nic.mac1609_4 TooLittleTime_CCH 0
scalar SlicingScenario.node[14].nic.mac1609_4 TimesIntoBackoff_CCH 0
scalar SlicingScenario.node[14].nic.mac1609_4 SlotsBackoff_CCH 0
scalar SlicingScenario.node[14].nic.mac1609_4 NumInternalContention_CCH 0
scalar SlicingScenario.node[14].nic.mac1609_4 RemainingPacketsInEDCA_CCH 0
scalar SlicingScenario.node[14].nic.mac1609_4 totalBusyTime_CCH 0
scalar SlicingScenario.node[14].nic.mac1609_4 ReceivedUnicastPackets_SCH 0
scalar SlicingScenario.node[14].nic.mac1609_4 ReceivedBroadcasts_SCH 6245
scalar SlicingScenario.node[14].nic.mac1609_4 SentPackets_SCH 0
scalar SlicingScenario.node[14].nic.mac1609_4 SentAcknowledgements_SCH 0
scalar SlicingScenario.node[14].nic.mac1609_4 SNIRLostPackets_SCH 0
scalar SlicingScenario.node[14].nic.mac1609_4 RXTXLostPackets_SCH 0
scalar SlicingScenario.node[14].nic.mac1609_4 TotalLostPackets_SCH 0
scalar SlicingScenario.node[14].nic.mac1609_4 DroppedPacketsInMac_SCH 0
scalar SlicingScenario.node[14].nic.mac1609_4 TooLittleTime_SCH 0
scalar SlicingScenario.node[14].nic.mac1609_4 TimesIntoBackoff_SCH 0
scalar SlicingScenario.node[14].nic.mac1609_4 SlotsBackoff_SCH 0
scalar SlicingScenario.node[14].nic.mac1609_4 NumInternalContention_SCH 0
scalar SlicingScenario.node[14].nic.mac1609_4 RemainingPacketsInEDCA_SCH 0
scalar SlicingScenario.node[14].nic.mac1609_4 totalBusyTime_SCH 12.88968
scalar SlicingScenario.node[14].veinsmobility startTime 15
scalar SlicingScenario.node[14].veinsmobility totalTime 92
scalar SlicingScenario.node[14].veinsmobility stopTime 108
scalar SlicingScenario.node[14].veinsmobility minSpeed 8.0948467524587
scalar SlicingScenario.node[14].veinsmobility maxSpeed 11.102227638955
scalar SlicingScenario.node[14].veinsmobility totalDistance 982.79950158133
scalar SlicingScenario.node[14].veinsmobility totalCO2Emission 166.11555690567
scalar SlicingScenario.node[16].appl txPackets_109 0
scalar SlicingScenario.node[16].appl rxPackets_109 0
scalar SlicingScenario.node[16].appl rxNeighborPackets_109 0
scalar SlicingScenario.node[16].appl meanDelay_109 0
scalar SlicingScenario.node[16].appl meanJitter_109 0
scalar SlicingScenario.node[16].appl meanRxPacketSize_109 0
scalar SlicingScenario.node[16].appl meanTxPacketSize_109 0
scalar SlicingScenario.node[16].appl meanRxThroughput_109 0
scalar SlicingScenario.node[16].appl meanTxThroughput_109 0
scalar SlicingScenario.node[16].appl rxTimeOfService_109 0
scalar SlicingScenario.node[16].appl txTimeOfService_109 0
scalar SlicingScenario.node[16].appl txPackets_40_109 0
scalar SlicingScenario.node[16].appl rxPackets_40_109 176
scalar SlicingScenario.node[16].appl rxNeighborPackets_40_109 3346
scalar SlicingScenario.node[16].appl meanDelay_40_109 0.00333669909
scalar SlicingScenario.node[16].appl meanJitter_40_109 4.4130682e-05
scalar SlicingScenario.node[16].appl meanRxPacketSize_40_109 1510
scalar SlicingScenario.node[16].appl meanTxPacketSize_40_109 0
scalar SlicingScenario.node[16].appl meanRxThroughput_40_109 30371.637081572
scalar SlicingScenario.node[16].appl meanTxThroughput_40_109 0
scalar SlicingScenario.node[16].appl rxTimeOfService_40_109 70.002153466071
scalar SlicingScenario.node[16].appl txTimeOfService_40_109 0
scalar SlicingScenario.node[16].nic.phy80211p busyTime 0.14370322580647
scalar SlicingScenario.node[16].nic.phy80211p ncollisions 0
scalar SlicingScenario.node[16].nic.phy80211p UnderSensitivityPackets 747
scalar SlicingScenario.node[16].nic.mac1609_4 ReceivedUnicastPackets_CCH 0
scalar SlicingScenario.node[16].nic.mac1609_4 ReceivedBroadcasts_CCH 0
scalar SlicingScenario.node[16].nic.mac1609_4 SentPackets_CCH 0
scalar SlicingScenario.node[16].nic.mac1609_4 SentAcknowledgements_CCH 0
scalar SlicingScenario.node[16].nic.mac1609_4 SNIRLostPackets_CCH 0
scalar SlicingScenario.node[16].nic.mac1609_4 RXTXLostPackets_CCH 0
scalar SlicingScenario.node[16].nic.mac1609_4 TotalLostPackets_CCH 0
scalar SlicingScenario.node[16].nic.mac1609_4 DroppedPacketsInMac_CCH 0
scalar SlicingScenario.node[16].nic.mac1609_4 TooLittleTime_CCH 0
scalar SlicingScenario.node[16].nic.mac1609_4 TimesIntoBackoff_CCH 0
scalar SlicingScenario.node[16].nic.mac1609_4 SlotsBackoff_CCH 0
scalar SlicingScenario.node[16].nic.mac1609_4 NumInternalContention_CCH 0
scalar SlicingScenario.node[16].nic.mac1609_4 RemainingPacketsInEDCA_CCH 0
scalar SlicingScenario.node[16].nic.mac1609_4 totalBusyTime_CCH 0
scalar SlicingScenario.node[16].nic.mac1609_4 ReceivedUnicastPackets_SCH 0
scalar SlicingScenario.node[16].nic.mac1609_4 ReceivedBroadcasts_SCH 6475
scalar SlicingScenario.node[16].nic.mac1609_4 SentPackets_SCH 0
scalar SlicingScenario.node[16].nic.mac1609_4 SentAcknowledgements_SCH 0
scalar SlicingScenario.node[16].nic.mac1609_4 SNIRLostPackets_SCH 0
scalar SlicingScenario.node[16].nic.mac1609_4 RXTXLostPackets_SCH 0
scalar SlicingScenario.node[16].nic.mac1609_4 TotalLostPackets_SCH 0
scalar SlicingScenario.node[16].nic.mac1609_4 DroppedPacketsInMac_SCH 0
scalar SlicingScenario.node[16].nic.mac1609_4 TooLittleTime_SCH 0
scalar SlicingScenario.node[16].nic.mac1609_4 TimesIntoBackoff_SCH 0
scalar SlicingScenario.node[16].nic.mac1609_4 SlotsBackoff_SCH 0
scalar SlicingScenario.node[16].nic.mac1609_4 NumInternalContention_SCH 0
scalar SlicingScenario.node[16].nic.mac1609_4 RemainingPacketsInEDCA_SCH 0
scalar SlicingScenario.node[16].nic.mac1609_4 totalBusyTime_SCH 13.3644
scalar SlicingScenario.node[16].veinsmobility startTime 17
scalar SlicingScenario.node[16].veinsmobility totalTime 92
scalar SlicingScenario.node[16].veinsmobility stopTime 110
scalar SlicingScenario.node[16].veinsmobility minSpeed 10.213759996959
scalar SlicingScenario.node[16].veinsmobility maxSpeed 11.094027927392
scalar SlicingScenario.node[16].veinsmobility totalDistance 985.40931394132
scalar SlicingScenario.node[16].veinsmobility totalCO2Emission 160.41549365513
scalar SlicingScenario.node[15].appl txPackets_103 0
scalar SlicingScenario.node[15].appl rxPackets_103 0
scalar SlicingScenario.node[15].appl rxNeighborPackets_103 0
scalar SlicingScenario.node[15].appl meanDelay_103 0
scalar SlicingScenario.node[15].appl meanJitter_103 0
scalar SlicingScenario.node[15].appl meanRxPacketSize_103 0
scalar SlicingScenario.node[15].appl meanTxPacketSize_103 0
scalar SlicingScenario.node[15].appl meanRxThroughput_103 0
scalar SlicingScenario.node[15].appl meanTxThroughput_103 0
scalar SlicingScenario.node[15].appl rxTimeOfService_103 0
scalar SlicingScenario.node[15].appl txTimeOfService_103 0
scalar SlicingScenario.node[15].appl txPackets_40_103 0
scalar SlicingScenario.node[15].appl rxPackets_40_103 184
scalar SlicingScenario.node[15].appl rxNeighborPackets_40_103 3395
scalar SlicingScenario.node[15].appl meanDelay_40_103 0.002679585166
scalar SlicingScenario.node[15].appl meanJitter_40_103 3.4881922e-05
scalar SlicingScenario.node[15].appl meanRxPacketSize_40_103 1510
scalar SlicingScenario.node[15].appl meanTxPacketSize_40_103 0
scalar SlicingScenario.node[15].appl meanRxThroughput_40_103 30364.513231944
scalar SlicingScenario.node[15].appl meanTxThroughput_40_103 0
scalar SlicingScenario.node[15].appl rxTimeOfService_40_103 73.201239322409
scalar SlicingScenario.node[15].appl txTimeOfService_40_103 0
scalar SlicingScenario.node[15].nic.phy80211p busyTime 0.1428722526316
scalar SlicingScenario.node[15].nic.phy80211p ncollisions 0
scalar SlicingScenario.node[15].nic.phy80211p UnderSensitivityPackets 810
scalar SlicingScenario.node[15].nic.mac1609_4 ReceivedUnicastPackets_CCH 0
scalar SlicingScenario.node[15].nic.mac1609_4 ReceivedBroadcasts_CCH 0
scalar SlicingScenario.node[15].nic.mac1609_4 SentPackets_CCH 0
scalar SlicingScenario.node[15].nic.mac1609_4 SentAcknowledgements_CCH 0
scalar SlicingScenario.node[15].nic.mac1609_4 SNIRLostPackets_CCH 0
scalar SlicingScenario.node[15].nic.mac1609_4 RXTXLostPackets_CCH 0
scalar SlicingScenario.node[15].nic.mac1609_4 TotalLostPackets_CCH 0
scalar SlicingScenario.node[15].nic.mac1609_4 DroppedPacketsInMac_CCH 0
scalar SlicingScenario.node[15].nic.mac1609_4 TooLittleTime_CCH 0
scalar SlicingScenario.node[15].nic.mac1609_4 TimesIntoBackoff_CCH 0
scalar SlicingScenario.node[15].nic.mac1609_4 SlotsBackoff_CCH 0
scalar SlicingScenario.node[15].nic.mac1609_4 NumInternalContention_CCH 0
scalar SlicingScenario.node[15].nic.mac1609_4 RemainingPacketsInEDCA_CCH 0
scalar SlicingScenario.node[15].nic.mac1609_4 totalBusyTime_CCH 0
scalar SlicingScenario.node[15].nic.mac1609_4 ReceivedUnicastPackets_SCH 0
scalar SlicingScenario.node[15].nic.mac1609_4 ReceivedBroadcasts_SCH 6576
scalar SlicingScenario.node[15].nic.mac1609_4 SentPackets_SCH 0
scalar SlicingScenario.node[15].nic.mac1609_4 SentAcknowledgements_SCH 0
scalar SlicingScenario.node[15].nic.mac1609_4 SNIRLostPackets_SCH 0
scalar SlicingScenario.node[15].nic.mac1609_4 RXTXLostPackets_SCH 0
scalar SlicingScenario.node[15].nic.mac1609_4 TotalLostPackets_SCH 0
scalar SlicingScenario.node[15].nic.mac1609_4 DroppedPacketsInMac_SCH 0
scalar SlicingScenario.node[15].nic.mac1609_4 TooLittleTime_SCH 0
scalar SlicingScenario.node[15].nic.mac1609_4 TimesIntoBackoff_SCH 0
scalar SlicingScenario.node[15].nic.mac1609_4 SlotsBackoff_SCH 0
scalar SlicingScenario.node[15].nic.mac1609_4 NumInternalContention_SCH 0
scalar SlicingScenario.node[15].nic.mac1609_4 RemainingPacketsInEDCA_SCH 0
scalar SlicingScenario.node[15].nic.mac1609_4 totalBusyTime_SCH 13.572864
scalar SlicingScenario.node[15].veinsmobility startTime 16
scalar SlicingScenario.node[15].veinsmobility totalTime 94
scalar SlicingScenario.node[15].veinsmobility stopTime 111
scalar SlicingScenario.node[15].veinsmobility minSpeed 4.7344295840696
scalar SlicingScenario.node[15].veinsmobility maxSpeed 11.108497308814
scalar SlicingScenario.node[15].veinsmobility totalDistance 980.37148673873
scalar SlicingScenario.node[15].veinsmobility totalCO2Emission 173.6332918733
scalar SlicingScenario.node[17].appl txPackets_115 0
scalar SlicingScenario.node[17].appl rxPackets_115 0
scalar SlicingScenario.node[17].appl rxNeighborPackets_115 0
scalar SlicingScenario.node[17].appl meanDelay_115 0
scalar SlicingScenario.node[17].appl meanJitter_115 0
scalar SlicingScenario.node[17].appl meanRxPacketSize_115 0
scalar SlicingScenario.node[17].appl meanTxPacketSize_115 0
scalar SlicingScenario.node[17].appl meanRxThroughput_115 0
scalar SlicingScenario.node[17].appl meanTxThroughput_115 0
scalar SlicingScenario.node[17].appl rxTimeOfService_115 0
scalar SlicingScenario.node[17].appl txTimeOfService_115 0
scalar SlicingScenario.node[17].appl txPackets_41_115 0
scalar SlicingScenario.node[17].appl rxPackets_41_115 175
scalar SlicingScenario.node[17].appl rxNeighborPackets_41_115 2805
scalar SlicingScenario.node[17].appl meanDelay_41_115 0.002707691785
scalar SlicingScenario.node[17].appl meanJitter_41_115 4.8752416e-05
scalar SlicingScenario.node[17].appl meanRxPacketSize_41_115 1510
scalar SlicingScenario.node[17].appl meanTxPacketSize_41_115 0
scalar SlicingScenario.node[17].appl meanRxThroughput_41_115 30373.25709685
scalar SlicingScenario.node[17].appl meanTxThroughput_41_115 0
scalar SlicingScenario.node[17].appl rxTimeOfService_41_115 69.6007014743
scalar SlicingScenario.node[17].appl txTimeOfService_41_115 0
scalar SlicingScenario.node[17].nic.phy80211p busyTime 0.14530116129034
scalar SlicingScenario.node[17].nic.phy80211p ncollisions 0
scalar SlicingScenario.node[17].nic.phy80211p UnderSensitivityPackets 801
scalar SlicingScenario.node[17].nic.mac1609_4 ReceivedUnicastPackets_CCH 0
scalar SlicingScenario.node[17].nic.mac1609_4 ReceivedBroadcasts_CCH 0
scalar SlicingScenario.node[17].nic.mac1609_4 SentPackets_CCH 0
scalar SlicingScenario.node[17].nic.mac1609_4 SentAcknowledgements_CCH 0
scalar SlicingScenario.node[17].nic.mac1609_4 SNIRLostPackets_CCH 0
scalar SlicingScenario.node[17].nic.mac1609_4 RXTXLostPackets_CCH 0
scalar SlicingScenario.node[17].nic.mac1609_4 TotalLostPackets_CCH 0
scalar SlicingScenario.node[17].nic.mac1609_4 DroppedPacketsInMac_CCH 0
scalar SlicingScenario.node[17].nic.mac1609_4 TooLittleTime_CCH 0
scalar SlicingScenario.node[17].nic.mac1609_4 TimesIntoBackoff_CCH 0
scalar SlicingScenario.node[17].nic.mac1609_4 SlotsBackoff_CCH 0
scalar SlicingScenario.node[17].nic.mac1609_4 NumInternalContention_CCH 0
scalar SlicingScenario.node[17].nic.mac1609_4 RemainingPacketsInEDCA_CCH 0
scalar SlicingScenario.node[17].nic.mac1609_4 totalBusyTime_CCH 0
scalar SlicingScenario.node[17].nic.mac1609_4 ReceivedUnicastPackets_SCH 0
scalar SlicingScenario.node[17].nic.mac1609_4 ReceivedBroadcasts_SCH 6547
scalar SlicingScenario.node[17].nic.mac1609_4 SentPackets_SCH 0
scalar SlicingScenario.node[17].nic.mac1609_4 SentAcknowledgements_SCH 0
scalar SlicingScenario.node[17].nic.mac1609_4 SNIRLostPackets_SCH 0
scalar SlicingScenario.node[17].nic.mac1609_4 RXTXLostPackets_SCH 0
scalar SlicingScenario.node[17].nic.mac1609_4 TotalLostPackets_SCH 0
scalar SlicingScenario.node[17].nic.mac1609_4 DroppedPacketsInMac_SCH 0
scalar SlicingScenario.node[17].nic.mac1609_4 TooLittleTime_SCH 0
scalar SlicingScenario.node[17].nic.mac1609_4 TimesIntoBackoff_SCH 0
scalar SlicingScenario.node[17].nic.mac1609_4 SlotsBackoff_SCH 0
scalar SlicingScenario.node[17].nic.mac1609_4 NumInternalContention_SCH 0
scalar SlicingScenario.node[17].nic.mac1609_4 RemainingPacketsInEDCA_SCH 0
scalar SlicingScenario.node[17].nic.mac1609_4 totalBusyTime_SCH 13.513008
scalar SlicingScenario.node[17].veinsmobility startTime 18
scalar SlicingScenario.node[17].veinsmobility totalTime 92
scalar SlicingScenario.node[17].veinsmobility stopTime 111
scalar SlicingScenario.node[17].veinsmobility minSpeed 7.9692163368319
scalar SlicingScenario.node[17].veinsmobility maxSpeed 11.103942793808
scalar SlicingScenario.node[17].veinsmobility totalDistance 981.87170203105
scalar SlicingScenario.node[17].veinsmobility totalCO2Emission 167.44337809255
scalar SlicingScenario.node[18].appl txPackets_121 0
scalar SlicingScenario.node[18].appl rxPackets_121 0
scalar SlicingScenario.node[18].appl rxNeighborPackets_121 0
scalar SlicingScenario.node[18].appl meanDelay_121 0
scalar SlicingScenario.node[18].appl meanJitter_121 0
scalar SlicingScenario.node[18].appl meanRxPacketSize_121 0
scalar SlicingScenario.node[18].appl meanTxPacketSize_121 0
scalar SlicingScenario.node[18].appl meanRxThroughput_121 0
scalar SlicingScenario.node[18].appl meanTxThroughput_121 0
scalar SlicingScenario.node[18].appl rxTimeOfService_121 0
scalar SlicingScenario.node[18].appl txTimeOfService_121 0
scalar SlicingScenario.node[18].appl txPackets_40_121 0
scalar SlicingScenario.node[18].appl rxPackets_40_121 169
scalar SlicingScenario.node[18].appl rxNeighborPackets_40_121 3398
scalar SlicingScenario.node[18].appl meanDelay_40_121 0.006562179969
scalar SlicingScenario.node[18].appl meanJitter_40_121 9.5322013e-05
scalar SlicingScenario.node[18].appl meanRxPacketSize_40_121 1510
scalar SlicingScenario.node[18].appl meanTxPacketSize_40_121 0
scalar SlicingScenario.node[18].appl meanRxThroughput_40_121 30377.801126854
scalar SlicingScenario.node[18].appl meanTxThroughput_40_121 0
scalar SlicingScenario.node[18].appl rxTimeOfService_40_121 67.204337518533
scalar SlicingScenario.node[18].appl txTimeOfService_40_121 0
scalar SlicingScenario.node[18].nic.phy80211p busyTime 0.14688052173915
scalar SlicingScenario.node[18].nic.phy80211p ncollisions 0
scalar SlicingScenario.node[18].nic.phy80211p UnderSensitivityPackets 777
scalar SlicingScenario.node[18].nic.mac1609_4 ReceivedUnicastPackets_CCH 0
scalar SlicingScenario.node[18].nic.mac1609_4 ReceivedBroadcasts_CCH 0
scalar SlicingScenario.node[18].nic.mac1609_4 SentPackets_CCH 0
scalar SlicingScenario.node[18].nic.mac1609_4 SentAcknowledgements_CCH 0
scalar SlicingScenario.node[18].nic.mac1609_4 SNIRLostPackets_CCH 0
scalar SlicingScenario.node[18].nic.mac1609_4 RXTXLostPackets_CCH 0
scalar SlicingScenario.node[18].nic.mac1609_4 TotalLostPackets_CCH 0
scalar SlicingScenario.node[18].nic.mac1609_4 DroppedPacketsInMac_CCH 0
scalar SlicingScenario.node[18].nic.mac1609_4 TooLittleTime_CCH 0
scalar SlicingScenario.node[18].nic.mac1609_4 TimesIntoBackoff_CCH 0
scalar SlicingScenario.node[18].nic.mac1609_4 SlotsBackoff_CCH 0
scalar SlicingScenario.node[18].nic.mac1609_4 NumInternalContention_CCH 0
scalar SlicingScenario.node[18].nic.mac1609_4 RemainingPacketsInEDCA_CCH 0
scalar SlicingScenario.node[18].nic.mac1609_4 totalBusyTime_CCH 0
scalar SlicingScenario.node[18].nic.mac1609_4 ReceivedUnicastPackets_SCH 0
scalar SlicingScenario.node[18].nic.mac1609_4 ReceivedBroadcasts_SCH 6547
scalar SlicingScenario.node[18].nic.mac1609_4 SentPackets_SCH 0
scalar SlicingScenario.node[18].nic.mac1609_4 SentAcknowledgements_SCH 0
scalar SlicingScenario.node[18].nic.mac1609_4 SNIRLostPackets_SCH 0
scalar SlicingScenario.node[18].nic.mac1609_4 RXTXLostPackets_SCH 0
scalar SlicingScenario.node[18].nic.mac1609_4 TotalLostPackets_SCH 0
scalar SlicingScenario.node[18].nic.mac1609_4 DroppedPacketsInMac_SCH 0
scalar SlicingScenario.node[18].nic.mac1609_4 TooLittleTime_SCH 0
scalar SlicingScenario.node[18].nic.mac1609_4 TimesIntoBackoff_SCH 0
scalar SlicingScenario.node[18].nic.mac1609_4 SlotsBackoff_SCH 0
scalar SlicingScenario.node[18].nic.mac1609_4 NumInternalContention_SCH 0
scalar SlicingScenario.node[18].nic.mac1609_4 RemainingPacketsInEDCA_SCH 0
scalar SlicingScenario.node[18].nic.mac1609_4 totalBusyTime_SCH 13.513008
scalar SlicingScenario.node[18].veinsmobility startTime 19
scalar SlicingScenario.node[18].veinsmobility totalTime 91
scalar SlicingScenario.node[18].veinsmobility stopTime 111
scalar SlicingScenario.node[18].veinsmobility minSpeed 10.418794686192
scalar SlicingScenario.node[18].veinsmobility maxSpeed 11.098228784874
scalar SlicingScenario.node[18].veinsmobility totalDistance 977.49593431706
scalar SlicingScenario.node[18].veinsmobility totalCO2Emission 160.62861223334
scalar SlicingScenario.node[20].appl txPackets_133 0
scalar SlicingScenario.node[20].appl rxPackets_133 0
scalar SlicingScenario.node[20].appl rxNeighborPackets_133 0
scalar SlicingScenario.node[20].appl meanDelay_133 0
scalar SlicingScenario.node[20].appl meanJitter_133 0
scalar SlicingScenario.node[20].appl meanRxPacketSize_133 0
scalar SlicingScenario.node[20].appl meanTxPacketSize_133 0
scalar SlicingScenario.node[20].appl meanRxThroughput_133 0
scalar SlicingScenario.node[20].appl meanTxThroughput_133 0
scalar SlicingScenario.node[20].appl rxTimeOfService_133 0
scalar SlicingScenario.node[20].appl txTimeOfService_133 0
scalar SlicingScenario.node[20].appl txPackets_40_133 0
scalar SlicingScenario.node[20].appl rxPackets_40_133 165
scalar SlicingScenario.node[20].appl rxNeighborPackets_40_133 3526
scalar SlicingScenario.node[20].appl meanDelay_40_133 0.002073335352
scalar SlicingScenario.node[20].appl meanJitter_40_133 1.2849253e-05
scalar SlicingScenario.node[20].appl meanRxPacketSize_40_133 1510
scalar SlicingScenario.node[20].appl meanTxPacketSize_40_133 0
scalar SlicingScenario.node[20].appl meanRxThroughput_40_133 30384.14884748
scalar SlicingScenario.node[20].appl meanTxThroughput_40_133 0
scalar SlicingScenario.node[20].appl rxTimeOfService_40_133 65.599994589459
scalar SlicingScenario.node[20].appl txTimeOfService_40_133 0
scalar SlicingScenario.node[20].nic.phy80211p busyTime 0.15152452173915
scalar SlicingScenario.node[20].nic.phy80211p ncollisions 0
scalar SlicingScenario.node[20].nic.phy80211p UnderSensitivityPackets 800
scalar SlicingScenario.node[20].nic.mac1609_4 ReceivedUnicastPackets_CCH 0
[...]
scalar SlicingScenario.rsu[0].appl rxNeighborPackets_41_667 0
scalar SlicingScenario.rsu[0].appl meanDelay_41_667 0
scalar SlicingScenario.rsu[0].appl meanJitter_41_667 0
scalar SlicingScenario.rsu[0].appl meanRxPacketSize_41_667 0
scalar SlicingScenario.rsu[0].appl meanTxPacketSize_41_667 1510
scalar SlicingScenario.rsu[0].appl meanRxThroughput_41_667 0
scalar SlicingScenario.rsu[0].appl meanTxThroughput_41_667 30243.204577969
scalar SlicingScenario.rsu[0].appl rxTimeOfService_41_667 0
scalar SlicingScenario.rsu[0].appl txTimeOfService_41_667 279.6
scalar SlicingScenario.rsu[0].appl txPackets_41_673 695
scalar SlicingScenario.rsu[0].appl rxPackets_41_673 0
scalar SlicingScenario.rsu[0].appl rxNeighborPackets_41_673 0
scalar SlicingScenario.rsu[0].appl meanDelay_41_673 0
scalar SlicingScenario.rsu[0].appl meanJitter_41_673 0
scalar SlicingScenario.rsu[0].appl meanRxPacketSize_41_673 0
scalar SlicingScenario.rsu[0].appl meanTxPacketSize_41_673 1510
scalar SlicingScenario.rsu[0].appl meanRxThroughput_41_673 0
scalar SlicingScenario.rsu[0].appl meanTxThroughput_41_673 30243.515850144
scalar SlicingScenario.rsu[0].appl rxTimeOfService_41_673 0
scalar SlicingScenario.rsu[0].appl txTimeOfService_41_673 277.6
scalar SlicingScenario.rsu[0].appl txPackets_41_679 688
scalar SlicingScenario.rsu[0].appl rxPackets_41_679 0
scalar SlicingScenario.rsu[0].appl rxNeighborPackets_41_679 0
scalar SlicingScenario.rsu[0].appl meanDelay_41_679 0
scalar SlicingScenario.rsu[0].appl meanJitter_41_679 0
scalar SlicingScenario.rsu[0].appl meanRxPacketSize_41_679 0
scalar SlicingScenario.rsu[0].appl meanTxPacketSize_41_679 1510
scalar SlicingScenario.rsu[0].appl meanRxThroughput_41_679 0
scalar SlicingScenario.rsu[0].appl meanTxThroughput_41_679 30243.959243086
scalar SlicingScenario.rsu[0].appl rxTimeOfService_41_679 0
scalar SlicingScenario.rsu[0].appl txTimeOfService_41_679 274.8
scalar SlicingScenario.rsu[0].appl txPackets_41_691 679
scalar SlicingScenario.rsu[0].appl rxPackets_41_691 0
scalar SlicingScenario.rsu[0].appl rxNeighborPackets_41_691 0
scalar SlicingScenario.rsu[0].appl meanDelay_41_691 0
scalar SlicingScenario.rsu[0].appl meanJitter_41_691 0
scalar SlicingScenario.rsu[0].appl meanRxPacketSize_41_691 0
scalar SlicingScenario.rsu[0].appl meanTxPacketSize_41_691 1510
scalar SlicingScenario.rsu[0].appl meanRxThroughput_41_691 0
scalar SlicingScenario.rsu[0].appl meanTxThroughput_41_691 30244.542772861
scalar SlicingScenario.rsu[0].appl rxTimeOfService_41_691 0
scalar SlicingScenario.rsu[0].appl txTimeOfService_41_691 271.2
scalar SlicingScenario.rsu[0].appl txPackets_41_697 674
scalar SlicingScenario.rsu[0].appl rxPackets_41_697 0
scalar SlicingScenario.rsu[0].appl rxNeighborPackets_41_697 0
scalar SlicingScenario.rsu[0].appl meanDelay_41_697 0
scalar SlicingScenario.rsu[0].appl meanJitter_41_697 0
scalar SlicingScenario.rsu[0].appl meanRxPacketSize_41_697 0
scalar SlicingScenario.rsu[0].appl meanTxPacketSize_41_697 1510
scalar SlicingScenario.rsu[0].appl meanRxThroughput_41_697 0
scalar SlicingScenario.rsu[0].appl meanTxThroughput_41_697 30244.873699851
scalar SlicingScenario.rsu[0].appl rxTimeOfService_41_697 0
scalar SlicingScenario.rsu[0].appl txTimeOfService_41_697 269.2
scalar SlicingScenario.rsu[0].appl txPackets_41_703 669
scalar SlicingScenario.rsu[0].appl rxPackets_41_703 0
scalar SlicingScenario.rsu[0].appl rxNeighborPackets_41_703 0
scalar SlicingScenario.rsu[0].appl meanDelay_41_703 0
scalar SlicingScenario.rsu[0].appl meanJitter_41_703 0
scalar SlicingScenario.rsu[0].appl meanRxPacketSize_41_703 0
scalar SlicingScenario.rsu[0].appl meanTxPacketSize_41_703 1510
scalar SlicingScenario.rsu[0].appl meanRxThroughput_41_703 0
scalar SlicingScenario.rsu[0].appl meanTxThroughput_41_703 30245.209580838
scalar SlicingScenario.rsu[0].appl rxTimeOfService_41_703 0
scalar SlicingScenario.rsu[0].appl txTimeOfService_41_703 267.2
scalar SlicingScenario.rsu[0].appl txPackets_41_715 660
scalar SlicingScenario.rsu[0].appl rxPackets_41_715 0
scalar SlicingScenario.rsu[0].appl rxNeighborPackets_41_715 0
scalar SlicingScenario.rsu[0].appl meanDelay_41_715 0
scalar SlicingScenario.rsu[0].appl meanJitter_41_715 0
scalar SlicingScenario.rsu[0].appl meanRxPacketSize_41_715 0
scalar SlicingScenario.rsu[0].appl meanTxPacketSize_41_715 1510
scalar SlicingScenario.rsu[0].appl meanRxThroughput_41_715 0
scalar SlicingScenario.rsu[0].appl meanTxThroughput_41_715 30245.827010622
scalar SlicingScenario.rsu[0].appl rxTimeOfService_41_715 0
scalar SlicingScenario.rsu[0].appl txTimeOfService_41_715 263.6
scalar SlicingScenario.rsu[0].appl txPackets_41_721 653
scalar SlicingScenario.rsu[0].appl rxPackets_41_721 0
scalar SlicingScenario.rsu[0].appl rxNeighborPackets_41_721 0
scalar SlicingScenario.rsu[0].appl meanDelay_41_721 0
scalar SlicingScenario.rsu[0].appl meanJitter_41_721 0
scalar SlicingScenario.rsu[0].appl meanRxPacketSize_41_721 0
scalar SlicingScenario.rsu[0].appl meanTxPacketSize_41_721 1510
scalar SlicingScenario.rsu[0].appl meanRxThroughput_41_721 0
scalar SlicingScenario.rsu[0].appl meanTxThroughput_41_721 30246.319018405
scalar SlicingScenario.rsu[0].appl rxTimeOfService_41_721 0
scalar SlicingScenario.rsu[0].appl txTimeOfService_41_721 260.8
scalar SlicingScenario.rsu[0].appl txPackets_41_739 639
scalar SlicingScenario.rsu[0].appl rxPackets_41_739 0
scalar SlicingScenario.rsu[0].appl rxNeighborPackets_41_739 0
scalar SlicingScenario.rsu[0].appl meanDelay_41_739 0
scalar SlicingScenario.rsu[0].appl meanJitter_41_739 0
scalar SlicingScenario.rsu[0].appl meanRxPacketSize_41_739 0
scalar SlicingScenario.rsu[0].appl meanTxPacketSize_41_739 1510
scalar SlicingScenario.rsu[0].appl meanRxThroughput_41_739 0
scalar SlicingScenario.rsu[0].appl meanTxThroughput_41_739 30247.335423197
scalar SlicingScenario.rsu[0].appl rxTimeOfService_41_739 0
scalar SlicingScenario.rsu[0].appl txTimeOfService_41_739 255.2
scalar SlicingScenario.rsu[0].appl txPackets_41_757 624
scalar SlicingScenario.rsu[0].appl rxPackets_41_757 0
scalar SlicingScenario.rsu[0].appl rxNeighborPackets_41_757 0
scalar SlicingScenario.rsu[0].appl meanDelay_41_757 0
scalar SlicingScenario.rsu[0].appl meanJitter_41_757 0
scalar SlicingScenario.rsu[0].appl meanRxPacketSize_41_757 0
scalar SlicingScenario.rsu[0].appl meanTxPacketSize_41_757 1510
scalar SlicingScenario.rsu[0].appl meanRxThroughput_41_757 0
scalar SlicingScenario.rsu[0].appl meanTxThroughput_41_757 30248.475120385
scalar SlicingScenario.rsu[0].appl rxTimeOfService_41_757 0
scalar SlicingScenario.rsu[0].appl txTimeOfService_41_757 249.2
scalar SlicingScenario.rsu[0].appl txPackets_41_763 620
scalar SlicingScenario.rsu[0].appl rxPackets_41_763 0
scalar SlicingScenario.rsu[0].appl rxNeighborPackets_41_763 0
scalar SlicingScenario.rsu[0].appl meanDelay_41_763 0
scalar SlicingScenario.rsu[0].appl meanJitter_41_763 0
scalar SlicingScenario.rsu[0].appl meanRxPacketSize_41_763 0
scalar SlicingScenario.rsu[0].appl meanTxPacketSize_41_763 1510
scalar SlicingScenario.rsu[0].appl meanRxThroughput_41_763 0
scalar SlicingScenario.rsu[0].appl meanTxThroughput_41_763 30248.788368336
scalar SlicingScenario.rsu[0].appl rxTimeOfService_41_763 0
scalar SlicingScenario.rsu[0].appl txTimeOfService_41_763 247.6
scalar SlicingScenario.rsu[0].appl txPackets_41_769 614
scalar SlicingScenario.rsu[0].appl rxPackets_41_769 0
scalar SlicingScenario.rsu[0].appl rxNeighborPackets_41_769 0
scalar SlicingScenario.rsu[0].appl meanDelay_41_769 0
scalar SlicingScenario.rsu[0].appl meanJitter_41_769 0
scalar SlicingScenario.rsu[0].appl meanRxPacketSize_41_769 0
scalar SlicingScenario.rsu[0].appl meanTxPacketSize_41_769 1510
scalar SlicingScenario.rsu[0].appl meanRxThroughput_41_769 0
scalar SlicingScenario.rsu[0].appl meanTxThroughput_41_769 30249.265905383
scalar SlicingScenario.rsu[0].appl rxTimeOfService_41_769 0
scalar SlicingScenario.rsu[0].appl txTimeOfService_41_769 245.2
scalar SlicingScenario.rsu[0].appl txPackets_41_775 609
scalar SlicingScenario.rsu[0].appl rxPackets_41_775 0
scalar SlicingScenario.rsu[0].appl rxNeighborPackets_41_775 0
scalar SlicingScenario.rsu[0].appl meanDelay_41_775 0
scalar SlicingScenario.rsu[0].appl meanJitter_41_775 0
scalar SlicingScenario.rsu[0].appl meanRxPacketSize_41_775 0
scalar SlicingScenario.rsu[0].appl meanTxPacketSize_41_775 1510
scalar SlicingScenario.rsu[0].appl meanRxThroughput_41_775 0
scalar SlicingScenario.rsu[0].appl meanTxThroughput_41_775 30249.671052632
scalar SlicingScenario.rsu[0].appl rxTimeOfService_41_775 0
scalar SlicingScenario.rsu[0].appl txTimeOfService_41_775 243.2
scalar SlicingScenario.rsu[0].appl txPackets_41_799 590
scalar SlicingScenario.rsu[0].appl rxPackets_41_799 0
scalar SlicingScenario.rsu[0].appl rxNeighborPackets_41_799 0
scalar SlicingScenario.rsu[0].appl meanDelay_41_799 0
scalar SlicingScenario.rsu[0].appl meanJitter_41_799 0
scalar SlicingScenario.rsu[0].appl meanRxPacketSize_41_799 0
scalar SlicingScenario.rsu[0].appl meanTxPacketSize_41_799 1510
scalar SlicingScenario.rsu[0].appl meanRxThroughput_41_799 0
scalar SlicingScenario.rsu[0].appl meanTxThroughput_41_799 30251.273344652
scalar SlicingScenario.rsu[0].appl rxTimeOfService_41_799 0
scalar SlicingScenario.rsu[0].appl txTimeOfService_41_799 235.6
scalar SlicingScenario.rsu[0].appl txPackets_41_811 579
scalar SlicingScenario.rsu[0].appl rxPackets_41_811 0
scalar SlicingScenario.rsu[0].appl rxNeighborPackets_41_811 0
scalar SlicingScenario.rsu[0].appl meanDelay_41_811 0
scalar SlicingScenario.rsu[0].appl meanJitter_41_811 0
scalar SlicingScenario.rsu[0].appl meanRxPacketSize_41_811 0
scalar SlicingScenario.rsu[0].appl meanTxPacketSize_41_811 1510
scalar SlicingScenario.rsu[0].appl meanRxThroughput_41_811 0
scalar SlicingScenario.rsu[0].appl meanTxThroughput_41_811 30252.249134948
scalar SlicingScenario.rsu[0].appl rxTimeOfService_41_811 0
scalar SlicingScenario.rsu[0].appl txTimeOfService_41_811 231.2
scalar SlicingScenario.rsu[0].appl txPackets_41_817 575
scalar SlicingScenario.rsu[0].appl rxPackets_41_817 0
scalar SlicingScenario.rsu[0].appl rxNeighborPackets_41_817 0
scalar SlicingScenario.rsu[0].appl meanDelay_41_817 0
scalar SlicingScenario.rsu[0].appl meanJitter_41_817 0
scalar SlicingScenario.rsu[0].appl meanRxPacketSize_41_817 0
scalar SlicingScenario.rsu[0].appl meanTxPacketSize_41_817 1510
scalar SlicingScenario.rsu[0].appl meanRxThroughput_41_817 0
scalar SlicingScenario.rsu[0].appl meanTxThroughput_41_817 30252.613240418
scalar SlicingScenario.rsu[0].appl rxTimeOfService_41_817 0
scalar SlicingScenario.rsu[0].appl txTimeOfService_41_817 229.6
scalar SlicingScenario.rsu[0].appl txPackets_41_823 569
scalar SlicingScenario.rsu[0].appl rxPackets_41_823 0
scalar SlicingScenario.rsu[0].appl rxNeighborPackets_41_823 0
scalar SlicingScenario.rsu[0].appl meanDelay_41_823 0
scalar SlicingScenario.rsu[0].appl meanJitter_41_823 0
scalar SlicingScenario.rsu[0].appl meanRxPacketSize_41_823 0
scalar SlicingScenario.rsu[0].appl meanTxPacketSize_41_823 1510
scalar SlicingScenario.rsu[0].appl meanRxThroughput_41_823 0
scalar SlicingScenario.rsu[0].appl meanTxThroughput_41_823 30253.169014085
scalar SlicingScenario.rsu[0].appl rxTimeOfService_41_823 0
scalar SlicingScenario.rsu[0].appl txTimeOfService_41_823 227.2
scalar SlicingScenario.rsu[0].appl txPackets_41_835 559
scalar SlicingScenario.rsu[0].appl rxPackets_41_835 0
scalar SlicingScenario.rsu[0].appl rxNeighborPackets_41_835 0
scalar SlicingScenario.rsu[0].appl meanDelay_41_835 0
scalar SlicingScenario.rsu[0].appl meanJitter_41_835 0
scalar SlicingScenario.rsu[0].appl meanRxPacketSize_41_835 0
scalar SlicingScenario.rsu[0].appl meanTxPacketSize_41_835 1510
scalar SlicingScenario.rsu[0].appl meanRxThroughput_41_835 0
scalar SlicingScenario.rsu[0].appl meanTxThroughput_41_835 30254.121863799
scalar SlicingScenario.rsu[0].appl rxTimeOfService_41_835 0
scalar SlicingScenario.rsu[0].appl txTimeOfService_41_835 223.2
scalar SlicingScenario.rsu[0].appl txPackets_41_865 530
scalar SlicingScenario.rsu[0].appl rxPackets_41_865 0
scalar SlicingScenario.rsu[0].appl rxNeighborPackets_41_865 0
scalar SlicingScenario.rsu[0].appl meanDelay_41_865 0
scalar SlicingScenario.rsu[0].appl meanJitter_41_865 0
scalar SlicingScenario.rsu[0].appl meanRxPacketSize_41_865 0
scalar SlicingScenario.rsu[0].appl meanTxPacketSize_41_865 1510
scalar SlicingScenario.rsu[0].appl meanRxThroughput_41_865 0
scalar SlicingScenario.rsu[0].appl meanTxThroughput_41_865 30257.088846881
scalar SlicingScenario.rsu[0].appl rxTimeOfService_41_865 0
scalar SlicingScenario.rsu[0].appl txTimeOfService_41_865 211.6
scalar SlicingScenario.rsu[0].appl txPackets_41_871 525
scalar SlicingScenario.rsu[0].appl rxPackets_41_871 0
scalar SlicingScenario.rsu[0].appl rxNeighborPackets_41_871 0
scalar SlicingScenario.rsu[0].appl meanDelay_41_871 0
scalar SlicingScenario.rsu[0].appl meanJitter_41_871 0
scalar SlicingScenario.rsu[0].appl meanRxPacketSize_41_871 0
scalar SlicingScenario.rsu[0].appl meanTxPacketSize_41_871 1510
scalar SlicingScenario.rsu[0].appl meanRxThroughput_41_871 0
scalar SlicingScenario.rsu[0].appl meanTxThroughput_41_871 30257.633587786
scalar SlicingScenario.rsu[0].appl rxTimeOfService_41_871 0
scalar SlicingScenario.rsu[0].appl txTimeOfService_41_871 209.6
scalar SlicingScenario.rsu[0].appl txPackets_41_877 519
scalar SlicingScenario.rsu[0].appl rxPackets_41_877 0
scalar SlicingScenario.rsu[0].appl rxNeighborPackets_41_877 0
scalar SlicingScenario.rsu[0].appl meanDelay_41_877 0
scalar SlicingScenario.rsu[0].appl meanJitter_41_877 0
scalar SlicingScenario.rsu[0].appl meanRxPacketSize_41_877 0
scalar SlicingScenario.rsu[0].appl meanTxPacketSize_41_877 1510
scalar SlicingScenario.rsu[0].appl meanRxThroughput_41_877 0
scalar SlicingScenario.rsu[0].appl meanTxThroughput_41_877 30258.301158301
scalar SlicingScenario.rsu[0].appl rxTimeOfService_41_877 0
scalar SlicingScenario.rsu[0].appl txTimeOfService_41_877 207.2
scalar SlicingScenario.rsu[0].appl txPackets_41_901 504
scalar SlicingScenario.rsu[0].appl rxPackets_41_901 0
scalar SlicingScenario.rsu[0].appl rxNeighborPackets_41_901 0
scalar SlicingScenario.rsu[0].appl meanDelay_41_901 0
scalar SlicingScenario.rsu[0].appl meanJitter_41_901 0
scalar SlicingScenario.rsu[0].appl meanRxPacketSize_41_901 0
scalar SlicingScenario.rsu[0].appl meanTxPacketSize_41_901 1510
scalar SlicingScenario.rsu[0].appl meanRxThroughput_41_901 0
scalar SlicingScenario.rsu[0].appl meanTxThroughput_41_901 30260.039761431
scalar SlicingScenario.rsu[0].appl rxTimeOfService_41_901 0
scalar SlicingScenario.rsu[0].appl txTimeOfService_41_901 201.2
scalar SlicingScenario.rsu[0].appl txPackets_41_919 489
scalar SlicingScenario.rsu[0].appl rxPackets_41_919 0
scalar SlicingScenario.rsu[0].appl rxNeighborPackets_41_919 0
scalar SlicingScenario.rsu[0].appl meanDelay_41_919 0
scalar SlicingScenario.rsu[0].appl meanJitter_41_919 0
scalar SlicingScenario.rsu[0].appl meanRxPacketSize_41_919 0
scalar SlicingScenario.rsu[0].appl meanTxPacketSize_41_919 1510
scalar SlicingScenario.rsu[0].appl meanRxThroughput_41_919 0
scalar SlicingScenario.rsu[0].appl meanTxThroughput_41_919 30261.885245902
scalar SlicingScenario.rsu[0].appl rxTimeOfService_41_919 0
scalar SlicingScenario.rsu[0].appl txTimeOfService_41_919 195.2
scalar SlicingScenario.rsu[0].appl txPackets_41_931 478
scalar SlicingScenario.rsu[0].appl rxPackets_41_931 0
scalar SlicingScenario.rsu[0].appl rxNeighborPackets_41_931 0
scalar SlicingScenario.rsu[0].appl meanDelay_41_931 0
scalar SlicingScenario.rsu[0].appl meanJitter_41_931 0
scalar SlicingScenario.rsu[0].appl meanRxPacketSize_41_931 0
scalar SlicingScenario.rsu[0].appl meanTxPacketSize_41_931 1510
scalar SlicingScenario.rsu[0].appl meanRxThroughput_41_931 0
scalar SlicingScenario.rsu[0].appl meanTxThroughput_41_931 30263.312368973
scalar SlicingScenario.rsu[0].appl rxTimeOfService_41_931 0
scalar SlicingScenario.rsu[0].appl txTimeOfService_41_931 190.8
scalar SlicingScenario.rsu[0].appl txPackets_41_949 464
scalar SlicingScenario.rsu[0].appl rxPackets_41_949 0
scalar SlicingScenario.rsu[0].appl rxNeighborPackets_41_949 0
scalar SlicingScenario.rsu[0].appl meanDelay_41_949 0
scalar SlicingScenario.rsu[0].appl meanJitter_41_949 0
scalar SlicingScenario.rsu[0].appl meanRxPacketSize_41_949 0
scalar SlicingScenario.rsu[0].appl meanTxPacketSize_41_949 1510
scalar SlicingScenario.rsu[0].appl meanRxThroughput_41_949 0
scalar SlicingScenario.rsu[0].appl meanTxThroughput_41_949 30265.226781857
scalar SlicingScenario.rsu[0].appl rxTimeOfService_41_949 0
scalar SlicingScenario.rsu[0].appl txTimeOfService_41_949 185.2
scalar SlicingScenario.rsu[0].appl txPackets_41_955 459
scalar SlicingScenario.rsu[0].appl rxPackets_41_955 0
scalar SlicingScenario.rsu[0].appl rxNeighborPackets_41_955 0
scalar SlicingScenario.rsu[0].appl meanDelay_41_955 0
scalar SlicingScenario.rsu[0].appl meanJitter_41_955 0
scalar SlicingScenario.rsu[0].appl meanRxPacketSize_41_955 0
scalar SlicingScenario.rsu[0].appl meanTxPacketSize_41_955 1510
scalar SlicingScenario.rsu[0].appl meanRxThroughput_41_955 0
scalar SlicingScenario.rsu[0].appl meanTxThroughput_41_955 30265.938864629
scalar SlicingScenario.rsu[0].appl rxTimeOfService_41_955 0
scalar SlicingScenario.rsu[0].appl txTimeOfService_41_955 183.2
scalar SlicingScenario.rsu[0].appl txPackets_41_961 453
scalar SlicingScenario.rsu[0].appl rxPackets_41_961 0
scalar SlicingScenario.rsu[0].appl rxNeighborPackets_41_961 0
scalar SlicingScenario.rsu[0].appl meanDelay_41_961 0
scalar SlicingScenario.rsu[0].appl meanJitter_41_961 0
scalar SlicingScenario.rsu[0].appl meanRxPacketSize_41_961 0
scalar SlicingScenario.rsu[0].appl meanTxPacketSize_41_961 1510
scalar SlicingScenario.rsu[0].appl meanRxThroughput_41_961 0
scalar SlicingScenario.rsu[0].appl meanTxThroughput_41_961 30266.814159292
scalar SlicingScenario.rsu[0].appl rxTimeOfService_41_961 0
scalar SlicingScenario.rsu[0].appl txTimeOfService_41_961 180.8
scalar SlicingScenario.rsu[0].nic.phy80211p busyTime 0
scalar SlicingScenario.rsu[0].nic.phy80211p ncollisions 0
scalar SlicingScenario.rsu[0].nic.phy80211p UnderSensitivityPackets 0
scalar SlicingScenario.rsu[0].nic.mac1609_4 ReceivedUnicastPackets_CCH 0
scalar SlicingScenario.rsu[0].nic.mac1609_4 ReceivedBroadcasts_CCH 0
scalar SlicingScenario.rsu[0].nic.mac1609_4 SentPackets_CCH 0
scalar SlicingScenario.rsu[0].nic.mac1609_4 SentAcknowledgements_CCH 0
scalar SlicingScenario.rsu[0].nic.mac1609_4 SNIRLostPackets_CCH 0
scalar SlicingScenario.rsu[0].nic.mac1609_4 RXTXLostPackets_CCH 0
scalar SlicingScenario.rsu[0].nic.mac1609_4 TotalLostPackets_CCH 0
scalar SlicingScenario.rsu[0].nic.mac1609_4 DroppedPacketsInMac_CCH 0
scalar SlicingScenario.rsu[0].nic.mac1609_4 TooLittleTime_CCH 0
scalar SlicingScenario.rsu[0].nic.mac1609_4 TimesIntoBackoff_CCH 0
scalar SlicingScenario.rsu[0].nic.mac1609_4 SlotsBackoff_CCH 0
scalar SlicingScenario.rsu[0].nic.mac1609_4 NumInternalContention_CCH 0
scalar SlicingScenario.rsu[0].nic.mac1609_4 RemainingPacketsInEDCA_CCH 0
scalar SlicingScenario.rsu[0].nic.mac1609_4 totalBusyTime_CCH 0
scalar SlicingScenario.rsu[0].nic.mac1609_4 ReceivedUnicastPackets_SCH 0
scalar SlicingScenario.rsu[0].nic.mac1609_4 ReceivedBroadcasts_SCH 0
scalar SlicingScenario.rsu[0].nic.mac1609_4 SentPackets_SCH 86767
scalar SlicingScenario.rsu[0].nic.mac1609_4 SentAcknowledgements_SCH 0
scalar SlicingScenario.rsu[0].nic.mac1609_4 SNIRLostPackets_SCH 0
scalar SlicingScenario.rsu[0].nic.mac1609_4 RXTXLostPackets_SCH 0
scalar SlicingScenario.rsu[0].nic.mac1609_4 TotalLostPackets_SCH 0
scalar SlicingScenario.rsu[0].nic.mac1609_4 DroppedPacketsInMac_SCH 0
scalar SlicingScenario.rsu[0].nic.mac1609_4 TooLittleTime_SCH 21011
scalar SlicingScenario.rsu[0].nic.mac1609_4 TimesIntoBackoff_SCH 90706
scalar SlicingScenario.rsu[0].nic.mac1609_4 SlotsBackoff_SCH 303744
scalar SlicingScenario.rsu[0].nic.mac1609_4 NumInternalContention_SCH 0
scalar SlicingScenario.rsu[0].nic.mac1609_4 RemainingPacketsInEDCA_SCH 48649
scalar SlicingScenario.rsu[0].nic.mac1609_4 totalBusyTime_SCH 179.173855

