version 2
run General-9-20190316-16:43:43-7122
attr configname General
attr datetime 20190316-16:43:43
attr experiment General
attr inifile omnetpp.ini
attr iterationvars "$vehicles=0.1, $msgSizeA=1500B, $serviceMsgInterval=0.04s, $msgSizeB=10000B"
attr iterationvarsf vehicles=0.1,msgSizeA=1500B,serviceMsgInterval=0.04s,msgSizeB=10000B-
attr measurement "$vehicles=0.1, $msgSizeA=1500B, $serviceMsgInterval=0.04s, $msgSizeB=10000B"
attr network com.liborio.slicing.SlicingScenario
attr processid 7122
attr repetition 9
attr replication #9
attr resultdir results
attr runnumber 9
attr seedset 9
itervar msgSizeA 1500B
itervar msgSizeB 10000B
itervar serviceMsgInterval 0.04s
itervar vehicles 0.1
param **.debug false
param **.coreDebug false
param *.playgroundSizeX 1200m
param *.playgroundSizeY 1200m
param *.playgroundSizeZ 50m
param *.annotations.draw true
param *.manager.updateInterval 1s
param *.manager.host "\"localhost\""
param *.manager.port 9999
param *.manager.autoShutdown true
param *.manager.launchConfig "xmldoc(\"highway-\"+string(0.1)+\".launchd.xml\")"
param *.connectionManager.sendDirect true
param *.connectionManager.maxInterfDist 2600m
param *.connectionManager.drawMaxIntfDist false
param *.rsu[*].applType "\"RSUApp\""
param *.rsu[*].appl.headerLength "80 bit"
param *.rsu[*].appl.sendBeacons false
param *.rsu[*].appl.dataOnSch true
param *.rsu[*].appl.beaconInterval 1s
param *.rsu[*].appl.beaconUserPriority 7
param *.rsu[*].appl.dataUserPriority 5
param *.rsu[*].appl.entMsgADataLengthBytes 1500B
param *.rsu[*].appl.entMsgAUserPriority 4
param *.rsu[*].appl.entMsgAInterval 0.04s
param *.rsu[*].appl.entMsgBDataLengthBytes 10000B
param *.rsu[*].appl.entMsgBUserPriority 4
param *.rsu[*].appl.entMsgBInterval 0.04s
param *.rsu[*].nic.mac1609_4.useServiceChannel true
param *.rsu[*].nic.mac1609_4.txPower 20mW
param *.rsu[*].nic.mac1609_4.bitrate 6Mbps
param *.rsu[*].nic.phy80211p.sensitivity -90.00dBm
param *.rsu[0].mobility.x 515.0
param *.rsu[0].mobility.y 25.0
param *.rsu[0].mobility.z 3
param *.node[*].applType "\"VehApp\""
param *.node[*].appl.headerLength "80 bit"
param *.node[*].appl.sendBeacons false
param *.node[*].appl.dataOnSch true
param *.node[*].appl.beaconInterval 1s
param *.node[*].appl.wsaInterval 1s
param *.node[*].appl.entMsgADataLengthBits 1500B
param *.node[*].appl.entMsgAUserPriority 4
param *.node[*].appl.entMsgAInterval 0.04s
param *.node[*].appl.entMsgBDataLengthBits 10000B
param *.node[*].appl.entMsgBUserPriority 4
param *.node[*].appl.entMsgBInterval 0.04s
param *.node[*].nic.mac1609_4.useServiceChannel true
param *.node[*].nic.mac1609_4.txPower 20mW
param *.node[*].nic.mac1609_4.bitrate 6Mbps
param *.node[*].nic.phy80211p.sensitivity -90.00dBm
param *.node[*].veinsmobilityType.debug true
param *.node[*].veinsmobility.x 0
param *.node[*].veinsmobility.y 0
param *.node[*].veinsmobility.z 1.895
param *.**.nic.phy80211p.useThermalNoise true
param *.**.nic.phy80211p.thermalNoise -110dBm
param *.**.nic.phy80211p.decider "xmldoc(\"config.xml\")"
param *.**.nic.phy80211p.analogueModels "xmldoc(\"config.xml\")"
param *.**.nic.phy80211p.usePropagationDelay true
param *.**.nic.phy80211p.antenna "xmldoc(\"antenna.xml\", \"/root/Antenna[@id='monopole']\")"
param *.**.nic.phy80211p.collectCollisionStatistics true
param *.**.nic.phy80211p.allowTxDuringRx false

scalar SlicingScenario.node[3].appl txPackets_CCH_31 0
scalar SlicingScenario.node[3].appl rxPackets_CCH_31 0
scalar SlicingScenario.node[3].appl rxNeighborPackets_CCH_31 0
scalar SlicingScenario.node[3].appl meanDelay_CCH_31 0
scalar SlicingScenario.node[3].appl meanJitter_CCH_31 0
scalar SlicingScenario.node[3].appl meanRxPacketSize_CCH_31 0
scalar SlicingScenario.node[3].appl meanTxPacketSize_CCH_31 0
scalar SlicingScenario.node[3].appl meanRxThroughput_CCH_31 0
scalar SlicingScenario.node[3].appl meanTxThroughput_CCH_31 0
scalar SlicingScenario.node[3].appl rxTimeOfService_CCH_31 0
scalar SlicingScenario.node[3].appl txTimeOfService_CCH_31 0
scalar SlicingScenario.node[3].appl txPackets_SCH_40_31 0
scalar SlicingScenario.node[3].appl rxPackets_SCH_40_31 369
scalar SlicingScenario.node[3].appl rxNeighborPackets_SCH_40_31 2666
scalar SlicingScenario.node[3].appl meanDelay_SCH_40_31 25.062103033088
scalar SlicingScenario.node[3].appl meanJitter_SCH_40_31 0.190763279146
scalar SlicingScenario.node[3].appl meanRxPacketSize_SCH_40_31 1510
scalar SlicingScenario.node[3].appl meanTxPacketSize_SCH_40_31 0
scalar SlicingScenario.node[3].appl meanRxThroughput_SCH_40_31 52333.531894821
scalar SlicingScenario.node[3].appl meanTxThroughput_SCH_40_31 0
scalar SlicingScenario.node[3].appl rxTimeOfService_SCH_40_31 85.175218232139
scalar SlicingScenario.node[3].appl txTimeOfService_SCH_40_31 0
scalar SlicingScenario.node[3].nic.phy80211p busyTime 0.36123391304353
scalar SlicingScenario.node[3].nic.phy80211p ncollisions 0
scalar SlicingScenario.node[3].nic.phy80211p UnderSensitivityPackets 1495
scalar SlicingScenario.node[3].nic.mac1609_4 ReceivedUnicastPackets_CCH 0
scalar SlicingScenario.node[3].nic.mac1609_4 ReceivedBroadcasts_CCH 0
scalar SlicingScenario.node[3].nic.mac1609_4 SentPackets_CCH 0
scalar SlicingScenario.node[3].nic.mac1609_4 SentAcknowledgements_CCH 0
scalar SlicingScenario.node[3].nic.mac1609_4 SNIRLostPackets_CCH 0
scalar SlicingScenario.node[3].nic.mac1609_4 RXTXLostPackets_CCH 0
scalar SlicingScenario.node[3].nic.mac1609_4 TotalLostPackets_CCH 0
scalar SlicingScenario.node[3].nic.mac1609_4 DroppedPacketsInMac_CCH 0
scalar SlicingScenario.node[3].nic.mac1609_4 TooLittleTime_CCH 0
scalar SlicingScenario.node[3].nic.mac1609_4 TimesIntoBackoff_CCH 0
scalar SlicingScenario.node[3].nic.mac1609_4 SlotsBackoff_CCH 0
scalar SlicingScenario.node[3].nic.mac1609_4 NumInternalContention_CCH 0
scalar SlicingScenario.node[3].nic.mac1609_4 RemainingPacketsInEDCA_CCH 0
scalar SlicingScenario.node[3].nic.mac1609_4 totalBusyTime_CCH 0
scalar SlicingScenario.node[3].nic.mac1609_4 ReceivedUnicastPackets_SCH 0
scalar SlicingScenario.node[3].nic.mac1609_4 ReceivedBroadcasts_SCH 16739
scalar SlicingScenario.node[3].nic.mac1609_4 SentPackets_SCH 0
scalar SlicingScenario.node[3].nic.mac1609_4 SentAcknowledgements_SCH 0
scalar SlicingScenario.node[3].nic.mac1609_4 SNIRLostPackets_SCH 0
scalar SlicingScenario.node[3].nic.mac1609_4 RXTXLostPackets_SCH 0
scalar SlicingScenario.node[3].nic.mac1609_4 TotalLostPackets_SCH 0
scalar SlicingScenario.node[3].nic.mac1609_4 DroppedPacketsInMac_SCH 0
scalar SlicingScenario.node[3].nic.mac1609_4 TooLittleTime_SCH 0
scalar SlicingScenario.node[3].nic.mac1609_4 TimesIntoBackoff_SCH 0
scalar SlicingScenario.node[3].nic.mac1609_4 SlotsBackoff_SCH 0
scalar SlicingScenario.node[3].nic.mac1609_4 NumInternalContention_SCH 0
scalar SlicingScenario.node[3].nic.mac1609_4 RemainingPacketsInEDCA_SCH 0
scalar SlicingScenario.node[3].nic.mac1609_4 totalBusyTime_SCH 33.23352
scalar SlicingScenario.node[3].veinsmobility startTime 1
scalar SlicingScenario.node[3].veinsmobility totalTime 91
scalar SlicingScenario.node[3].veinsmobility stopTime 93
scalar SlicingScenario.node[3].veinsmobility minSpeed 10.615032494431
scalar SlicingScenario.node[3].veinsmobility maxSpeed 11.109756058794
scalar SlicingScenario.node[3].veinsmobility totalDistance 977.92271442532
scalar SlicingScenario.node[3].veinsmobility totalCO2Emission 158.25432105138
scalar SlicingScenario.node[0].appl txPackets_CCH_13 0
scalar SlicingScenario.node[0].appl rxPackets_CCH_13 0
scalar SlicingScenario.node[0].appl rxNeighborPackets_CCH_13 0
scalar SlicingScenario.node[0].appl meanDelay_CCH_13 0
scalar SlicingScenario.node[0].appl meanJitter_CCH_13 0
scalar SlicingScenario.node[0].appl meanRxPacketSize_CCH_13 0
scalar SlicingScenario.node[0].appl meanTxPacketSize_CCH_13 0
scalar SlicingScenario.node[0].appl meanRxThroughput_CCH_13 0
scalar SlicingScenario.node[0].appl meanTxThroughput_CCH_13 0
scalar SlicingScenario.node[0].appl rxTimeOfService_CCH_13 0
scalar SlicingScenario.node[0].appl txTimeOfService_CCH_13 0
scalar SlicingScenario.node[0].appl txPackets_SCH_40_13 0
scalar SlicingScenario.node[0].appl rxPackets_SCH_40_13 381
scalar SlicingScenario.node[0].appl rxNeighborPackets_SCH_40_13 2690
scalar SlicingScenario.node[0].appl meanDelay_SCH_40_13 24.588265622938
scalar SlicingScenario.node[0].appl meanJitter_SCH_40_13 0.185869730494
scalar SlicingScenario.node[0].appl meanRxPacketSize_SCH_40_13 1510
scalar SlicingScenario.node[0].appl meanTxPacketSize_SCH_40_13 0
scalar SlicingScenario.node[0].appl meanRxThroughput_SCH_40_13 53744.836658958
scalar SlicingScenario.node[0].appl meanTxThroughput_SCH_40_13 0
scalar SlicingScenario.node[0].appl rxTimeOfService_SCH_40_13 85.635761239827
scalar SlicingScenario.node[0].appl txTimeOfService_SCH_40_13 0
scalar SlicingScenario.node[0].nic.phy80211p busyTime 0.36586747826092
scalar SlicingScenario.node[0].nic.phy80211p ncollisions 0
scalar SlicingScenario.node[0].nic.phy80211p UnderSensitivityPackets 1280
scalar SlicingScenario.node[0].nic.mac1609_4 ReceivedUnicastPackets_CCH 0
scalar SlicingScenario.node[0].nic.mac1609_4 ReceivedBroadcasts_CCH 0
scalar SlicingScenario.node[0].nic.mac1609_4 SentPackets_CCH 0
scalar SlicingScenario.node[0].nic.mac1609_4 SentAcknowledgements_CCH 0
scalar SlicingScenario.node[0].nic.mac1609_4 SNIRLostPackets_CCH 0
scalar SlicingScenario.node[0].nic.mac1609_4 RXTXLostPackets_CCH 0
scalar SlicingScenario.node[0].nic.mac1609_4 TotalLostPackets_CCH 0
scalar SlicingScenario.node[0].nic.mac1609_4 DroppedPacketsInMac_CCH 0
scalar SlicingScenario.node[0].nic.mac1609_4 TooLittleTime_CCH 0
scalar SlicingScenario.node[0].nic.mac1609_4 TimesIntoBackoff_CCH 0
scalar SlicingScenario.node[0].nic.mac1609_4 SlotsBackoff_CCH 0
scalar SlicingScenario.node[0].nic.mac1609_4 NumInternalContention_CCH 0
scalar SlicingScenario.node[0].nic.mac1609_4 RemainingPacketsInEDCA_CCH 0
scalar SlicingScenario.node[0].nic.mac1609_4 totalBusyTime_CCH 0
scalar SlicingScenario.node[0].nic.mac1609_4 ReceivedUnicastPackets_SCH 0
scalar SlicingScenario.node[0].nic.mac1609_4 ReceivedBroadcasts_SCH 16954
scalar SlicingScenario.node[0].nic.mac1609_4 SentPackets_SCH 0
scalar SlicingScenario.node[0].nic.mac1609_4 SentAcknowledgements_SCH 0
scalar SlicingScenario.node[0].nic.mac1609_4 SNIRLostPackets_SCH 0
scalar SlicingScenario.node[0].nic.mac1609_4 RXTXLostPackets_SCH 0
scalar SlicingScenario.node[0].nic.mac1609_4 TotalLostPackets_SCH 0
scalar SlicingScenario.node[0].nic.mac1609_4 DroppedPacketsInMac_SCH 0
scalar SlicingScenario.node[0].nic.mac1609_4 TooLittleTime_SCH 0
scalar SlicingScenario.node[0].nic.mac1609_4 TimesIntoBackoff_SCH 0
scalar SlicingScenario.node[0].nic.mac1609_4 SlotsBackoff_SCH 0
scalar SlicingScenario.node[0].nic.mac1609_4 NumInternalContention_SCH 0
scalar SlicingScenario.node[0].nic.mac1609_4 RemainingPacketsInEDCA_SCH 0
scalar SlicingScenario.node[0].nic.mac1609_4 totalBusyTime_SCH 33.659808
scalar SlicingScenario.node[0].veinsmobility startTime 1
scalar SlicingScenario.node[0].veinsmobility totalTime 91
scalar SlicingScenario.node[0].veinsmobility stopTime 93
scalar SlicingScenario.node[0].veinsmobility minSpeed 10.642758255722
scalar SlicingScenario.node[0].veinsmobility maxSpeed 11.101319201421
scalar SlicingScenario.node[0].veinsmobility totalDistance 980.76185336057
scalar SlicingScenario.node[0].veinsmobility totalCO2Emission 158.31020118785
scalar SlicingScenario.node[2].appl txPackets_CCH_25 0
scalar SlicingScenario.node[2].appl rxPackets_CCH_25 0
scalar SlicingScenario.node[2].appl rxNeighborPackets_CCH_25 0
scalar SlicingScenario.node[2].appl meanDelay_CCH_25 0
scalar SlicingScenario.node[2].appl meanJitter_CCH_25 0
scalar SlicingScenario.node[2].appl meanRxPacketSize_CCH_25 0
scalar SlicingScenario.node[2].appl meanTxPacketSize_CCH_25 0
scalar SlicingScenario.node[2].appl meanRxThroughput_CCH_25 0
scalar SlicingScenario.node[2].appl meanTxThroughput_CCH_25 0
scalar SlicingScenario.node[2].appl rxTimeOfService_CCH_25 0
scalar SlicingScenario.node[2].appl txTimeOfService_CCH_25 0
scalar SlicingScenario.node[2].appl txPackets_SCH_40_25 0
scalar SlicingScenario.node[2].appl rxPackets_SCH_40_25 364
scalar SlicingScenario.node[2].appl rxNeighborPackets_SCH_40_25 2707
scalar SlicingScenario.node[2].appl meanDelay_SCH_40_25 25.802086576331
scalar SlicingScenario.node[2].appl meanJitter_SCH_40_25 0.192917335068
scalar SlicingScenario.node[2].appl meanRxPacketSize_SCH_40_25 1510
scalar SlicingScenario.node[2].appl meanTxPacketSize_SCH_40_25 0
scalar SlicingScenario.node[2].appl meanRxThroughput_SCH_40_25 51852.853870661
scalar SlicingScenario.node[2].appl meanTxThroughput_SCH_40_25 0
scalar SlicingScenario.node[2].appl rxTimeOfService_SCH_40_25 84.799961270559
scalar SlicingScenario.node[2].appl txTimeOfService_SCH_40_25 0
scalar SlicingScenario.node[2].nic.phy80211p busyTime 0.36586747826092
scalar SlicingScenario.node[2].nic.phy80211p ncollisions 0
scalar SlicingScenario.node[2].nic.phy80211p UnderSensitivityPackets 1280
scalar SlicingScenario.node[2].nic.mac1609_4 ReceivedUnicastPackets_CCH 0
scalar SlicingScenario.node[2].nic.mac1609_4 ReceivedBroadcasts_CCH 0
scalar SlicingScenario.node[2].nic.mac1609_4 SentPackets_CCH 0
scalar SlicingScenario.node[2].nic.mac1609_4 SentAcknowledgements_CCH 0
scalar SlicingScenario.node[2].nic.mac1609_4 SNIRLostPackets_CCH 0
scalar SlicingScenario.node[2].nic.mac1609_4 RXTXLostPackets_CCH 0
scalar SlicingScenario.node[2].nic.mac1609_4 TotalLostPackets_CCH 0
scalar SlicingScenario.node[2].nic.mac1609_4 DroppedPacketsInMac_CCH 0
scalar SlicingScenario.node[2].nic.mac1609_4 TooLittleTime_CCH 0
scalar SlicingScenario.node[2].nic.mac1609_4 TimesIntoBackoff_CCH 0
scalar SlicingScenario.node[2].nic.mac1609_4 SlotsBackoff_CCH 0
scalar SlicingScenario.node[2].nic.mac1609_4 NumInternalContention_CCH 0
scalar SlicingScenario.node[2].nic.mac1609_4 RemainingPacketsInEDCA_CCH 0
scalar SlicingScenario.node[2].nic.mac1609_4 totalBusyTime_CCH 0
scalar SlicingScenario.node[2].nic.mac1609_4 ReceivedUnicastPackets_SCH 0
scalar SlicingScenario.node[2].nic.mac1609_4 ReceivedBroadcasts_SCH 16954
scalar SlicingScenario.node[2].nic.mac1609_4 SentPackets_SCH 0
scalar SlicingScenario.node[2].nic.mac1609_4 SentAcknowledgements_SCH 0
scalar SlicingScenario.node[2].nic.mac1609_4 SNIRLostPackets_SCH 0
scalar SlicingScenario.node[2].nic.mac1609_4 RXTXLostPackets_SCH 0
scalar SlicingScenario.node[2].nic.mac1609_4 TotalLostPackets_SCH 0
scalar SlicingScenario.node[2].nic.mac1609_4 DroppedPacketsInMac_SCH 0
scalar SlicingScenario.node[2].nic.mac1609_4 TooLittleTime_SCH 0
scalar SlicingScenario.node[2].nic.mac1609_4 TimesIntoBackoff_SCH 0
scalar SlicingScenario.node[2].nic.mac1609_4 SlotsBackoff_SCH 0
scalar SlicingScenario.node[2].nic.mac1609_4 NumInternalContention_SCH 0
scalar SlicingScenario.node[2].nic.mac1609_4 RemainingPacketsInEDCA_SCH 0
scalar SlicingScenario.node[2].nic.mac1609_4 totalBusyTime_SCH 33.659808
scalar SlicingScenario.node[2].veinsmobility startTime 1
scalar SlicingScenario.node[2].veinsmobility totalTime 91
scalar SlicingScenario.node[2].veinsmobility stopTime 93
scalar SlicingScenario.node[2].veinsmobility minSpeed 10.619363530553
scalar SlicingScenario.node[2].veinsmobility maxSpeed 11.106452895342
scalar SlicingScenario.node[2].veinsmobility totalDistance 978.34685083766
scalar SlicingScenario.node[2].veinsmobility totalCO2Emission 158.28110715742
scalar SlicingScenario.node[1].appl txPackets_CCH_19 0
scalar SlicingScenario.node[1].appl rxPackets_CCH_19 0
scalar SlicingScenario.node[1].appl rxNeighborPackets_CCH_19 0
scalar SlicingScenario.node[1].appl meanDelay_CCH_19 0
scalar SlicingScenario.node[1].appl meanJitter_CCH_19 0
scalar SlicingScenario.node[1].appl meanRxPacketSize_CCH_19 0
scalar SlicingScenario.node[1].appl meanTxPacketSize_CCH_19 0
scalar SlicingScenario.node[1].appl meanRxThroughput_CCH_19 0
scalar SlicingScenario.node[1].appl meanTxThroughput_CCH_19 0
scalar SlicingScenario.node[1].appl rxTimeOfService_CCH_19 0
scalar SlicingScenario.node[1].appl txTimeOfService_CCH_19 0
scalar SlicingScenario.node[1].appl txPackets_SCH_41_19 0
scalar SlicingScenario.node[1].appl rxPackets_SCH_41_19 2615
scalar SlicingScenario.node[1].appl rxNeighborPackets_SCH_41_19 11089
scalar SlicingScenario.node[1].appl meanDelay_SCH_41_19 24.631185479943
scalar SlicingScenario.node[1].appl meanJitter_SCH_41_19 0.027465692645
scalar SlicingScenario.node[1].appl meanRxPacketSize_SCH_41_19 1438
scalar SlicingScenario.node[1].appl meanTxPacketSize_SCH_41_19 0
scalar SlicingScenario.node[1].appl meanRxThroughput_SCH_41_19 352832.32934139
scalar SlicingScenario.node[1].appl meanTxThroughput_SCH_41_19 0
scalar SlicingScenario.node[1].appl rxTimeOfService_SCH_41_19 85.290370233854
scalar SlicingScenario.node[1].appl txTimeOfService_SCH_41_19 0
scalar SlicingScenario.node[1].nic.phy80211p busyTime 0.36123391304353
scalar SlicingScenario.node[1].nic.phy80211p ncollisions 0
scalar SlicingScenario.node[1].nic.phy80211p UnderSensitivityPackets 1495
scalar SlicingScenario.node[1].nic.mac1609_4 ReceivedUnicastPackets_CCH 0
scalar SlicingScenario.node[1].nic.mac1609_4 ReceivedBroadcasts_CCH 0
scalar SlicingScenario.node[1].nic.mac1609_4 SentPackets_CCH 0
scalar SlicingScenario.node[1].nic.mac1609_4 SentAcknowledgements_CCH 0
scalar SlicingScenario.node[1].nic.mac1609_4 SNIRLostPackets_CCH 0
scalar SlicingScenario.node[1].nic.mac1609_4 RXTXLostPackets_CCH 0
scalar SlicingScenario.node[1].nic.mac1609_4 TotalLostPackets_CCH 0
scalar SlicingScenario.node[1].nic.mac1609_4 DroppedPacketsInMac_CCH 0
scalar SlicingScenario.node[1].nic.mac1609_4 TooLittleTime_CCH 0
scalar SlicingScenario.node[1].nic.mac1609_4 TimesIntoBackoff_CCH 0
scalar SlicingScenario.node[1].nic.mac1609_4 SlotsBackoff_CCH 0
scalar SlicingScenario.node[1].nic.mac1609_4 NumInternalContention_CCH 0
scalar SlicingScenario.node[1].nic.mac1609_4 RemainingPacketsInEDCA_CCH 0
scalar SlicingScenario.node[1].nic.mac1609_4 totalBusyTime_CCH 0
scalar SlicingScenario.node[1].nic.mac1609_4 ReceivedUnicastPackets_SCH 0
scalar SlicingScenario.node[1].nic.mac1609_4 ReceivedBroadcasts_SCH 16739
scalar SlicingScenario.node[1].nic.mac1609_4 SentPackets_SCH 0
scalar SlicingScenario.node[1].nic.mac1609_4 SentAcknowledgements_SCH 0
scalar SlicingScenario.node[1].nic.mac1609_4 SNIRLostPackets_SCH 0
scalar SlicingScenario.node[1].nic.mac1609_4 RXTXLostPackets_SCH 0
scalar SlicingScenario.node[1].nic.mac1609_4 TotalLostPackets_SCH 0
scalar SlicingScenario.node[1].nic.mac1609_4 DroppedPacketsInMac_SCH 0
scalar SlicingScenario.node[1].nic.mac1609_4 TooLittleTime_SCH 0
scalar SlicingScenario.node[1].nic.mac1609_4 TimesIntoBackoff_SCH 0
scalar SlicingScenario.node[1].nic.mac1609_4 SlotsBackoff_SCH 0
scalar SlicingScenario.node[1].nic.mac1609_4 NumInternalContention_SCH 0
scalar SlicingScenario.node[1].nic.mac1609_4 RemainingPacketsInEDCA_SCH 0
scalar SlicingScenario.node[1].nic.mac1609_4 totalBusyTime_SCH 33.23352
scalar SlicingScenario.node[1].veinsmobility startTime 1
scalar SlicingScenario.node[1].veinsmobility totalTime 91
scalar SlicingScenario.node[1].veinsmobility stopTime 93
scalar SlicingScenario.node[1].veinsmobility minSpeed 10.611494383905
scalar SlicingScenario.node[1].veinsmobility maxSpeed 11.109700287241
scalar SlicingScenario.node[1].veinsmobility totalDistance 978.63685009563
scalar SlicingScenario.node[1].veinsmobility totalCO2Emission 158.82240042169
scalar SlicingScenario.node[7].appl txPackets_CCH_55 0
scalar SlicingScenario.node[7].appl rxPackets_CCH_55 0
scalar SlicingScenario.node[7].appl rxNeighborPackets_CCH_55 0
scalar SlicingScenario.node[7].appl meanDelay_CCH_55 0
scalar SlicingScenario.node[7].appl meanJitter_CCH_55 0
scalar SlicingScenario.node[7].appl meanRxPacketSize_CCH_55 0
scalar SlicingScenario.node[7].appl meanTxPacketSize_CCH_55 0
scalar SlicingScenario.node[7].appl meanRxThroughput_CCH_55 0
scalar SlicingScenario.node[7].appl meanTxThroughput_CCH_55 0
scalar SlicingScenario.node[7].appl rxTimeOfService_CCH_55 0
scalar SlicingScenario.node[7].appl txTimeOfService_CCH_55 0
scalar SlicingScenario.node[7].appl txPackets_SCH_40_55 0
scalar SlicingScenario.node[7].appl rxPackets_SCH_40_55 338
scalar SlicingScenario.node[7].appl rxNeighborPackets_SCH_40_55 2808
scalar SlicingScenario.node[7].appl meanDelay_SCH_40_55 28.580372434664
scalar SlicingScenario.node[7].appl meanJitter_SCH_40_55 0.2110943842
scalar SlicingScenario.node[7].appl meanRxPacketSize_SCH_40_55 1510
scalar SlicingScenario.node[7].appl meanTxPacketSize_SCH_40_55 0
scalar SlicingScenario.node[7].appl meanRxThroughput_SCH_40_55 47850.320362504
scalar SlicingScenario.node[7].appl meanTxThroughput_SCH_40_55 0
scalar SlicingScenario.node[7].appl rxTimeOfService_SCH_40_55 85.32941825818
scalar SlicingScenario.node[7].appl txTimeOfService_SCH_40_55 0
scalar SlicingScenario.node[7].nic.phy80211p busyTime 0.37095225806455
scalar SlicingScenario.node[7].nic.phy80211p ncollisions 0
scalar SlicingScenario.node[7].nic.phy80211p UnderSensitivityPackets 1283
scalar SlicingScenario.node[7].nic.mac1609_4 ReceivedUnicastPackets_CCH 0
scalar SlicingScenario.node[7].nic.mac1609_4 ReceivedBroadcasts_CCH 0
scalar SlicingScenario.node[7].nic.mac1609_4 SentPackets_CCH 0
scalar SlicingScenario.node[7].nic.mac1609_4 SentAcknowledgements_CCH 0
scalar SlicingScenario.node[7].nic.mac1609_4 SNIRLostPackets_CCH 0
scalar SlicingScenario.node[7].nic.mac1609_4 RXTXLostPackets_CCH 0
scalar SlicingScenario.node[7].nic.mac1609_4 TotalLostPackets_CCH 0
scalar SlicingScenario.node[7].nic.mac1609_4 DroppedPacketsInMac_CCH 0
scalar SlicingScenario.node[7].nic.mac1609_4 TooLittleTime_CCH 0
scalar SlicingScenario.node[7].nic.mac1609_4 TimesIntoBackoff_CCH 0
scalar SlicingScenario.node[7].nic.mac1609_4 SlotsBackoff_CCH 0
scalar SlicingScenario.node[7].nic.mac1609_4 NumInternalContention_CCH 0
scalar SlicingScenario.node[7].nic.mac1609_4 RemainingPacketsInEDCA_CCH 0
scalar SlicingScenario.node[7].nic.mac1609_4 totalBusyTime_CCH 0
scalar SlicingScenario.node[7].nic.mac1609_4 ReceivedUnicastPackets_SCH 0
scalar SlicingScenario.node[7].nic.mac1609_4 ReceivedBroadcasts_SCH 17376
scalar SlicingScenario.node[7].nic.mac1609_4 SentPackets_SCH 0
scalar SlicingScenario.node[7].nic.mac1609_4 SentAcknowledgements_SCH 0
scalar SlicingScenario.node[7].nic.mac1609_4 SNIRLostPackets_SCH 0
scalar SlicingScenario.node[7].nic.mac1609_4 RXTXLostPackets_SCH 0
scalar SlicingScenario.node[7].nic.mac1609_4 TotalLostPackets_SCH 0
scalar SlicingScenario.node[7].nic.mac1609_4 DroppedPacketsInMac_SCH 0
scalar SlicingScenario.node[7].nic.mac1609_4 TooLittleTime_SCH 0
scalar SlicingScenario.node[7].nic.mac1609_4 TimesIntoBackoff_SCH 0
scalar SlicingScenario.node[7].nic.mac1609_4 SlotsBackoff_SCH 0
scalar SlicingScenario.node[7].nic.mac1609_4 NumInternalContention_SCH 0
scalar SlicingScenario.node[7].nic.mac1609_4 RemainingPacketsInEDCA_SCH 0
scalar SlicingScenario.node[7].nic.mac1609_4 totalBusyTime_SCH 34.49856
scalar SlicingScenario.node[7].veinsmobility startTime 2
scalar SlicingScenario.node[7].veinsmobility totalTime 92
scalar SlicingScenario.node[7].veinsmobility stopTime 95
scalar SlicingScenario.node[7].veinsmobility minSpeed 8.4328684217045
scalar SlicingScenario.node[7].veinsmobility maxSpeed 11.103694219738
scalar SlicingScenario.node[7].veinsmobility totalDistance 981.06322352453
scalar SlicingScenario.node[7].veinsmobility totalCO2Emission 168.21016498444
scalar SlicingScenario.node[4].appl txPackets_CCH_37 0
scalar SlicingScenario.node[4].appl rxPackets_CCH_37 0
scalar SlicingScenario.node[4].appl rxNeighborPackets_CCH_37 0
scalar SlicingScenario.node[4].appl meanDelay_CCH_37 0
scalar SlicingScenario.node[4].appl meanJitter_CCH_37 0
scalar SlicingScenario.node[4].appl meanRxPacketSize_CCH_37 0
scalar SlicingScenario.node[4].appl meanTxPacketSize_CCH_37 0
scalar SlicingScenario.node[4].appl meanRxThroughput_CCH_37 0
scalar SlicingScenario.node[4].appl meanTxThroughput_CCH_37 0
scalar SlicingScenario.node[4].appl rxTimeOfService_CCH_37 0
scalar SlicingScenario.node[4].appl txTimeOfService_CCH_37 0
scalar SlicingScenario.node[4].appl txPackets_SCH_40_37 0
scalar SlicingScenario.node[4].appl rxPackets_SCH_40_37 321
scalar SlicingScenario.node[4].appl rxNeighborPackets_SCH_40_37 2825
scalar SlicingScenario.node[4].appl meanDelay_SCH_40_37 30.057042400599
scalar SlicingScenario.node[4].appl meanJitter_SCH_40_37 0.222187062452
scalar SlicingScenario.node[4].appl meanRxPacketSize_SCH_40_37 1510
scalar SlicingScenario.node[4].appl meanTxPacketSize_SCH_40_37 0
scalar SlicingScenario.node[4].appl meanRxThroughput_SCH_40_37 46314.523247857
scalar SlicingScenario.node[4].appl meanTxThroughput_SCH_40_37 0
scalar SlicingScenario.node[4].appl rxTimeOfService_SCH_40_37 83.724925316584
scalar SlicingScenario.node[4].appl txTimeOfService_SCH_40_37 0
scalar SlicingScenario.node[4].nic.phy80211p busyTime 0.37095225806455
scalar SlicingScenario.node[4].nic.phy80211p ncollisions 0
scalar SlicingScenario.node[4].nic.phy80211p UnderSensitivityPackets 1283
scalar SlicingScenario.node[4].nic.mac1609_4 ReceivedUnicastPackets_CCH 0
scalar SlicingScenario.node[4].nic.mac1609_4 ReceivedBroadcasts_CCH 0
scalar SlicingScenario.node[4].nic.mac1609_4 SentPackets_CCH 0
scalar SlicingScenario.node[4].nic.mac1609_4 SentAcknowledgements_CCH 0
scalar SlicingScenario.node[4].nic.mac1609_4 SNIRLostPackets_CCH 0
scalar SlicingScenario.node[4].nic.mac1609_4 RXTXLostPackets_CCH 0
scalar SlicingScenario.node[4].nic.mac1609_4 TotalLostPackets_CCH 0
scalar SlicingScenario.node[4].nic.mac1609_4 DroppedPacketsInMac_CCH 0
scalar SlicingScenario.node[4].nic.mac1609_4 TooLittleTime_CCH 0
scalar SlicingScenario.node[4].nic.mac1609_4 TimesIntoBackoff_CCH 0
scalar SlicingScenario.node[4].nic.mac1609_4 SlotsBackoff_CCH 0
scalar SlicingScenario.node[4].nic.mac1609_4 NumInternalContention_CCH 0
scalar SlicingScenario.node[4].nic.mac1609_4 RemainingPacketsInEDCA_CCH 0
scalar SlicingScenario.node[4].nic.mac1609_4 totalBusyTime_CCH 0
scalar SlicingScenario.node[4].nic.mac1609_4 ReceivedUnicastPackets_SCH 0
scalar SlicingScenario.node[4].nic.mac1609_4 ReceivedBroadcasts_SCH 17376
scalar SlicingScenario.node[4].nic.mac1609_4 SentPackets_SCH 0
scalar SlicingScenario.node[4].nic.mac1609_4 SentAcknowledgements_SCH 0
scalar SlicingScenario.node[4].nic.mac1609_4 SNIRLostPackets_SCH 0
scalar SlicingScenario.node[4].nic.mac1609_4 RXTXLostPackets_SCH 0
scalar SlicingScenario.node[4].nic.mac1609_4 TotalLostPackets_SCH 0
scalar SlicingScenario.node[4].nic.mac1609_4 DroppedPacketsInMac_SCH 0
scalar SlicingScenario.node[4].nic.mac1609_4 TooLittleTime_SCH 0
scalar SlicingScenario.node[4].nic.mac1609_4 TimesIntoBackoff_SCH 0
scalar SlicingScenario.node[4].nic.mac1609_4 SlotsBackoff_SCH 0
scalar SlicingScenario.node[4].nic.mac1609_4 NumInternalContention_SCH 0
scalar SlicingScenario.node[4].nic.mac1609_4 RemainingPacketsInEDCA_SCH 0
scalar SlicingScenario.node[4].nic.mac1609_4 totalBusyTime_SCH 34.49856
scalar SlicingScenario.node[4].veinsmobility startTime 2
scalar SlicingScenario.node[4].veinsmobility totalTime 92
scalar SlicingScenario.node[4].veinsmobility stopTime 95
scalar SlicingScenario.node[4].veinsmobility minSpeed 7.9385806036163
scalar SlicingScenario.node[4].veinsmobility maxSpeed 11.10618930032
scalar SlicingScenario.node[4].veinsmobility totalDistance 979.05992924717
scalar SlicingScenario.node[4].veinsmobility totalCO2Emission 166.2323822491
scalar SlicingScenario.node[5].appl txPackets_CCH_43 0
scalar SlicingScenario.node[5].appl rxPackets_CCH_43 0
scalar SlicingScenario.node[5].appl rxNeighborPackets_CCH_43 0
scalar SlicingScenario.node[5].appl meanDelay_CCH_43 0
scalar SlicingScenario.node[5].appl meanJitter_CCH_43 0
scalar SlicingScenario.node[5].appl meanRxPacketSize_CCH_43 0
scalar SlicingScenario.node[5].appl meanTxPacketSize_CCH_43 0
scalar SlicingScenario.node[5].appl meanRxThroughput_CCH_43 0
scalar SlicingScenario.node[5].appl meanTxThroughput_CCH_43 0
scalar SlicingScenario.node[5].appl rxTimeOfService_CCH_43 0
scalar SlicingScenario.node[5].appl txTimeOfService_CCH_43 0
scalar SlicingScenario.node[5].appl txPackets_SCH_41_43 0
scalar SlicingScenario.node[5].appl rxPackets_SCH_41_43 2303
scalar SlicingScenario.node[5].appl rxNeighborPackets_SCH_41_43 11927
scalar SlicingScenario.node[5].appl meanDelay_SCH_41_43 29.432483780596
scalar SlicingScenario.node[5].appl meanJitter_SCH_41_43 0.030919409682
scalar SlicingScenario.node[5].appl meanRxPacketSize_SCH_41_43 1438
scalar SlicingScenario.node[5].appl meanTxPacketSize_SCH_41_43 0
scalar SlicingScenario.node[5].appl meanRxThroughput_SCH_41_43 313203.3788776
scalar SlicingScenario.node[5].appl meanTxThroughput_SCH_41_43 0
scalar SlicingScenario.node[5].appl rxTimeOfService_SCH_41_43 84.623097282605
scalar SlicingScenario.node[5].appl txTimeOfService_SCH_41_43 0
scalar SlicingScenario.node[5].nic.phy80211p busyTime 0.37095225806455
scalar SlicingScenario.node[5].nic.phy80211p ncollisions 0
scalar SlicingScenario.node[5].nic.phy80211p UnderSensitivityPackets 1283
scalar SlicingScenario.node[5].nic.mac1609_4 ReceivedUnicastPackets_CCH 0
scalar SlicingScenario.node[5].nic.mac1609_4 ReceivedBroadcasts_CCH 0
scalar SlicingScenario.node[5].nic.mac1609_4 SentPackets_CCH 0
scalar SlicingScenario.node[5].nic.mac1609_4 SentAcknowledgements_CCH 0
scalar SlicingScenario.node[5].nic.mac1609_4 SNIRLostPackets_CCH 0
scalar SlicingScenario.node[5].nic.mac1609_4 RXTXLostPackets_CCH 0
scalar SlicingScenario.node[5].nic.mac1609_4 TotalLostPackets_CCH 0
scalar SlicingScenario.node[5].nic.mac1609_4 DroppedPacketsInMac_CCH 0
scalar SlicingScenario.node[5].nic.mac1609_4 TooLittleTime_CCH 0
scalar SlicingScenario.node[5].nic.mac1609_4 TimesIntoBackoff_CCH 0
scalar SlicingScenario.node[5].nic.mac1609_4 SlotsBackoff_CCH 0
scalar SlicingScenario.node[5].nic.mac1609_4 NumInternalContention_CCH 0
scalar SlicingScenario.node[5].nic.mac1609_4 RemainingPacketsInEDCA_CCH 0
scalar SlicingScenario.node[5].nic.mac1609_4 totalBusyTime_CCH 0
scalar SlicingScenario.node[5].nic.mac1609_4 ReceivedUnicastPackets_SCH 0
scalar SlicingScenario.node[5].nic.mac1609_4 ReceivedBroadcasts_SCH 17376
scalar SlicingScenario.node[5].nic.mac1609_4 SentPackets_SCH 0
scalar SlicingScenario.node[5].nic.mac1609_4 SentAcknowledgements_SCH 0
scalar SlicingScenario.node[5].nic.mac1609_4 SNIRLostPackets_SCH 0
scalar SlicingScenario.node[5].nic.mac1609_4 RXTXLostPackets_SCH 0
scalar SlicingScenario.node[5].nic.mac1609_4 TotalLostPackets_SCH 0
scalar SlicingScenario.node[5].nic.mac1609_4 DroppedPacketsInMac_SCH 0
scalar SlicingScenario.node[5].nic.mac1609_4 TooLittleTime_SCH 0
scalar SlicingScenario.node[5].nic.mac1609_4 TimesIntoBackoff_SCH 0
scalar SlicingScenario.node[5].nic.mac1609_4 SlotsBackoff_SCH 0
scalar SlicingScenario.node[5].nic.mac1609_4 NumInternalContention_SCH 0
scalar SlicingScenario.node[5].nic.mac1609_4 RemainingPacketsInEDCA_SCH 0
scalar SlicingScenario.node[5].nic.mac1609_4 totalBusyTime_SCH 34.49856
scalar SlicingScenario.node[5].veinsmobility startTime 2
scalar SlicingScenario.node[5].veinsmobility totalTime 92
scalar SlicingScenario.node[5].veinsmobility stopTime 95
scalar SlicingScenario.node[5].veinsmobility minSpeed 7.875215281486
scalar SlicingScenario.node[5].veinsmobility maxSpeed 11.09889333487
scalar SlicingScenario.node[5].veinsmobility totalDistance 979.4317252031
scalar SlicingScenario.node[5].veinsmobility totalCO2Emission 167.03712188611
scalar SlicingScenario.node[6].appl txPackets_CCH_49 0
scalar SlicingScenario.node[6].appl rxPackets_CCH_49 0
scalar SlicingScenario.node[6].appl rxNeighborPackets_CCH_49 0
scalar SlicingScenario.node[6].appl meanDelay_CCH_49 0
scalar SlicingScenario.node[6].appl meanJitter_CCH_49 0
scalar SlicingScenario.node[6].appl meanRxPacketSize_CCH_49 0
scalar SlicingScenario.node[6].appl meanTxPacketSize_CCH_49 0
scalar SlicingScenario.node[6].appl meanRxThroughput_CCH_49 0
scalar SlicingScenario.node[6].appl meanTxThroughput_CCH_49 0
scalar SlicingScenario.node[6].appl rxTimeOfService_CCH_49 0
scalar SlicingScenario.node[6].appl txTimeOfService_CCH_49 0
scalar SlicingScenario.node[6].appl txPackets_SCH_41_49 0
scalar SlicingScenario.node[6].appl rxPackets_SCH_41_49 2356
scalar SlicingScenario.node[6].appl rxNeighborPackets_SCH_41_49 11874
scalar SlicingScenario.node[6].appl meanDelay_SCH_41_49 28.824920107021
scalar SlicingScenario.node[6].appl meanJitter_SCH_41_49 0.030227402586
scalar SlicingScenario.node[6].appl meanRxPacketSize_SCH_41_49 1438
scalar SlicingScenario.node[6].appl meanTxPacketSize_SCH_41_49 0
scalar SlicingScenario.node[6].appl meanRxThroughput_SCH_41_49 318317.12840964
scalar SlicingScenario.node[6].appl meanTxThroughput_SCH_41_49 0
scalar SlicingScenario.node[6].appl rxTimeOfService_SCH_41_49 85.199562258865
scalar SlicingScenario.node[6].appl txTimeOfService_SCH_41_49 0
scalar SlicingScenario.node[6].nic.phy80211p busyTime 0.37095225806455
scalar SlicingScenario.node[6].nic.phy80211p ncollisions 0
scalar SlicingScenario.node[6].nic.phy80211p UnderSensitivityPackets 1283
scalar SlicingScenario.node[6].nic.mac1609_4 ReceivedUnicastPackets_CCH 0
scalar SlicingScenario.node[6].nic.mac1609_4 ReceivedBroadcasts_CCH 0
scalar SlicingScenario.node[6].nic.mac1609_4 SentPackets_CCH 0
scalar SlicingScenario.node[6].nic.mac1609_4 SentAcknowledgements_CCH 0
scalar SlicingScenario.node[6].nic.mac1609_4 SNIRLostPackets_CCH 0
scalar SlicingScenario.node[6].nic.mac1609_4 RXTXLostPackets_CCH 0
scalar SlicingScenario.node[6].nic.mac1609_4 TotalLostPackets_CCH 0
scalar SlicingScenario.node[6].nic.mac1609_4 DroppedPacketsInMac_CCH 0
scalar SlicingScenario.node[6].nic.mac1609_4 TooLittleTime_CCH 0
scalar SlicingScenario.node[6].nic.mac1609_4 TimesIntoBackoff_CCH 0
scalar SlicingScenario.node[6].nic.mac1609_4 SlotsBackoff_CCH 0
scalar SlicingScenario.node[6].nic.mac1609_4 NumInternalContention_CCH 0
scalar SlicingScenario.node[6].nic.mac1609_4 RemainingPacketsInEDCA_CCH 0
scalar SlicingScenario.node[6].nic.mac1609_4 totalBusyTime_CCH 0
scalar SlicingScenario.node[6].nic.mac1609_4 ReceivedUnicastPackets_SCH 0
scalar SlicingScenario.node[6].nic.mac1609_4 ReceivedBroadcasts_SCH 17376
scalar SlicingScenario.node[6].nic.mac1609_4 SentPackets_SCH 0
scalar SlicingScenario.node[6].nic.mac1609_4 SentAcknowledgements_SCH 0
scalar SlicingScenario.node[6].nic.mac1609_4 SNIRLostPackets_SCH 0
scalar SlicingScenario.node[6].nic.mac1609_4 RXTXLostPackets_SCH 0
scalar SlicingScenario.node[6].nic.mac1609_4 TotalLostPackets_SCH 0
scalar SlicingScenario.node[6].nic.mac1609_4 DroppedPacketsInMac_SCH 0
scalar SlicingScenario.node[6].nic.mac1609_4 TooLittleTime_SCH 0
scalar SlicingScenario.node[6].nic.mac1609_4 TimesIntoBackoff_SCH 0
scalar SlicingScenario.node[6].nic.mac1609_4 SlotsBackoff_SCH 0
scalar SlicingScenario.node[6].nic.mac1609_4 NumInternalContention_SCH 0
scalar SlicingScenario.node[6].nic.mac1609_4 RemainingPacketsInEDCA_SCH 0
scalar SlicingScenario.node[6].nic.mac1609_4 totalBusyTime_SCH 34.49856
scalar SlicingScenario.node[6].veinsmobility startTime 2
scalar SlicingScenario.node[6].veinsmobility totalTime 92
scalar SlicingScenario.node[6].veinsmobility stopTime 95
scalar SlicingScenario.node[6].veinsmobility minSpeed 8.2848270419501
scalar SlicingScenario.node[6].veinsmobility maxSpeed 11.088330696351
scalar SlicingScenario.node[6].veinsmobility totalDistance 981.73348098199
scalar SlicingScenario.node[6].veinsmobility totalCO2Emission 167.47155198908
scalar SlicingScenario.node[11].appl txPackets_CCH_79 0
scalar SlicingScenario.node[11].appl rxPackets_CCH_79 0
scalar SlicingScenario.node[11].appl rxNeighborPackets_CCH_79 0
scalar SlicingScenario.node[11].appl meanDelay_CCH_79 0
scalar SlicingScenario.node[11].appl meanJitter_CCH_79 0
scalar SlicingScenario.node[11].appl meanRxPacketSize_CCH_79 0
scalar SlicingScenario.node[11].appl meanTxPacketSize_CCH_79 0
scalar SlicingScenario.node[11].appl meanRxThroughput_CCH_79 0
scalar SlicingScenario.node[11].appl meanTxThroughput_CCH_79 0
scalar SlicingScenario.node[11].appl rxTimeOfService_CCH_79 0
scalar SlicingScenario.node[11].appl txTimeOfService_CCH_79 0
scalar SlicingScenario.node[11].appl txPackets_SCH_41_79 0
scalar SlicingScenario.node[11].appl rxPackets_SCH_41_79 1988
scalar SlicingScenario.node[11].appl rxNeighborPackets_SCH_41_79 12234
scalar SlicingScenario.node[11].appl meanDelay_SCH_41_79 34.100242394507
scalar SlicingScenario.node[11].appl meanJitter_SCH_41_79 0.036675293606
scalar SlicingScenario.node[11].appl meanRxPacketSize_SCH_41_79 1438
scalar SlicingScenario.node[11].appl meanTxPacketSize_SCH_41_79 0
scalar SlicingScenario.node[11].appl meanRxThroughput_SCH_41_79 281084.03793939
scalar SlicingScenario.node[11].appl meanTxThroughput_SCH_41_79 0
scalar SlicingScenario.node[11].appl rxTimeOfService_SCH_41_79 81.395728365526
scalar SlicingScenario.node[11].appl txTimeOfService_SCH_41_79 0
scalar SlicingScenario.node[11].nic.phy80211p busyTime 0.36712289361706
scalar SlicingScenario.node[11].nic.phy80211p ncollisions 0
scalar SlicingScenario.node[11].nic.phy80211p UnderSensitivityPackets 1704
scalar SlicingScenario.node[11].nic.mac1609_4 ReceivedUnicastPackets_CCH 0
scalar SlicingScenario.node[11].nic.mac1609_4 ReceivedBroadcasts_CCH 0
scalar SlicingScenario.node[11].nic.mac1609_4 SentPackets_CCH 0
scalar SlicingScenario.node[11].nic.mac1609_4 SentAcknowledgements_CCH 0
scalar SlicingScenario.node[11].nic.mac1609_4 SNIRLostPackets_CCH 0
scalar SlicingScenario.node[11].nic.mac1609_4 RXTXLostPackets_CCH 0
scalar SlicingScenario.node[11].nic.mac1609_4 TotalLostPackets_CCH 0
scalar SlicingScenario.node[11].nic.mac1609_4 DroppedPacketsInMac_CCH 0
scalar SlicingScenario.node[11].nic.mac1609_4 TooLittleTime_CCH 0
scalar SlicingScenario.node[11].nic.mac1609_4 TimesIntoBackoff_CCH 0
scalar SlicingScenario.node[11].nic.mac1609_4 SlotsBackoff_CCH 0
scalar SlicingScenario.node[11].nic.mac1609_4 NumInternalContention_CCH 0
scalar SlicingScenario.node[11].nic.mac1609_4 RemainingPacketsInEDCA_CCH 0
scalar SlicingScenario.node[11].nic.mac1609_4 totalBusyTime_CCH 0
scalar SlicingScenario.node[11].nic.mac1609_4 ReceivedUnicastPackets_SCH 0
scalar SlicingScenario.node[11].nic.mac1609_4 ReceivedBroadcasts_SCH 17381
scalar SlicingScenario.node[11].nic.mac1609_4 SentPackets_SCH 0
scalar SlicingScenario.node[11].nic.mac1609_4 SentAcknowledgements_SCH 0
scalar SlicingScenario.node[11].nic.mac1609_4 SNIRLostPackets_SCH 0
scalar SlicingScenario.node[11].nic.mac1609_4 RXTXLostPackets_SCH 0
scalar SlicingScenario.node[11].nic.mac1609_4 TotalLostPackets_SCH 0
scalar SlicingScenario.node[11].nic.mac1609_4 DroppedPacketsInMac_SCH 0
scalar SlicingScenario.node[11].nic.mac1609_4 TooLittleTime_SCH 0
scalar SlicingScenario.node[11].nic.mac1609_4 TimesIntoBackoff_SCH 0
scalar SlicingScenario.node[11].nic.mac1609_4 SlotsBackoff_SCH 0
scalar SlicingScenario.node[11].nic.mac1609_4 NumInternalContention_SCH 0
scalar SlicingScenario.node[11].nic.mac1609_4 RemainingPacketsInEDCA_SCH 0
scalar SlicingScenario.node[11].nic.mac1609_4 totalBusyTime_SCH 34.509552
scalar SlicingScenario.node[11].veinsmobility startTime 3
scalar SlicingScenario.node[11].veinsmobility totalTime 93
scalar SlicingScenario.node[11].veinsmobility stopTime 97
scalar SlicingScenario.node[11].veinsmobility minSpeed 4.8871683211867
scalar SlicingScenario.node[11].veinsmobility maxSpeed 11.108601574218
scalar SlicingScenario.node[11].veinsmobility totalDistance 976.95715554299
scalar SlicingScenario.node[11].veinsmobility totalCO2Emission 173.00458782053
scalar SlicingScenario.node[8].appl txPackets_CCH_61 0
scalar SlicingScenario.node[8].appl rxPackets_CCH_61 0
scalar SlicingScenario.node[8].appl rxNeighborPackets_CCH_61 0
scalar SlicingScenario.node[8].appl meanDelay_CCH_61 0
scalar SlicingScenario.node[8].appl meanJitter_CCH_61 0
scalar SlicingScenario.node[8].appl meanRxPacketSize_CCH_61 0
scalar SlicingScenario.node[8].appl meanTxPacketSize_CCH_61 0
scalar SlicingScenario.node[8].appl meanRxThroughput_CCH_61 0
scalar SlicingScenario.node[8].appl meanTxThroughput_CCH_61 0
scalar SlicingScenario.node[8].appl rxTimeOfService_CCH_61 0
scalar SlicingScenario.node[8].appl txTimeOfService_CCH_61 0
scalar SlicingScenario.node[8].appl txPackets_SCH_40_61 0
scalar SlicingScenario.node[8].appl rxPackets_SCH_40_61 286
scalar SlicingScenario.node[8].appl rxNeighborPackets_SCH_40_61 2946
scalar SlicingScenario.node[8].appl meanDelay_SCH_40_61 35.326789480861
scalar SlicingScenario.node[8].appl meanJitter_SCH_40_61 0.259417158979
scalar SlicingScenario.node[8].appl meanRxPacketSize_SCH_40_61 1510
scalar SlicingScenario.node[8].appl meanTxPacketSize_SCH_40_61 0
scalar SlicingScenario.node[8].appl meanRxThroughput_SCH_40_61 42297.984269177
scalar SlicingScenario.node[8].appl meanTxThroughput_SCH_40_61 0
scalar SlicingScenario.node[8].appl rxTimeOfService_SCH_40_61 81.679542410668
scalar SlicingScenario.node[8].appl txTimeOfService_SCH_40_61 0
scalar SlicingScenario.node[8].nic.phy80211p busyTime 0.37221827368424
scalar SlicingScenario.node[8].nic.phy80211p ncollisions 0
scalar SlicingScenario.node[8].nic.phy80211p UnderSensitivityPackets 1490
scalar SlicingScenario.node[8].nic.mac1609_4 ReceivedUnicastPackets_CCH 0
scalar SlicingScenario.node[8].nic.mac1609_4 ReceivedBroadcasts_CCH 0
scalar SlicingScenario.node[8].nic.mac1609_4 SentPackets_CCH 0
scalar SlicingScenario.node[8].nic.mac1609_4 SentAcknowledgements_CCH 0
scalar SlicingScenario.node[8].nic.mac1609_4 SNIRLostPackets_CCH 0
scalar SlicingScenario.node[8].nic.mac1609_4 RXTXLostPackets_CCH 0
scalar SlicingScenario.node[8].nic.mac1609_4 TotalLostPackets_CCH 0
scalar SlicingScenario.node[8].nic.mac1609_4 DroppedPacketsInMac_CCH 0
scalar SlicingScenario.node[8].nic.mac1609_4 TooLittleTime_CCH 0
scalar SlicingScenario.node[8].nic.mac1609_4 TimesIntoBackoff_CCH 0
scalar SlicingScenario.node[8].nic.mac1609_4 SlotsBackoff_CCH 0
scalar SlicingScenario.node[8].nic.mac1609_4 NumInternalContention_CCH 0
scalar SlicingScenario.node[8].nic.mac1609_4 RemainingPacketsInEDCA_CCH 0
scalar SlicingScenario.node[8].nic.mac1609_4 totalBusyTime_CCH 0
scalar SlicingScenario.node[8].nic.mac1609_4 ReceivedUnicastPackets_SCH 0
scalar SlicingScenario.node[8].nic.mac1609_4 ReceivedBroadcasts_SCH 17810
scalar SlicingScenario.node[8].nic.mac1609_4 SentPackets_SCH 0
scalar SlicingScenario.node[8].nic.mac1609_4 SentAcknowledgements_SCH 0
scalar SlicingScenario.node[8].nic.mac1609_4 SNIRLostPackets_SCH 0
scalar SlicingScenario.node[8].nic.mac1609_4 RXTXLostPackets_SCH 0
scalar SlicingScenario.node[8].nic.mac1609_4 TotalLostPackets_SCH 0
scalar SlicingScenario.node[8].nic.mac1609_4 DroppedPacketsInMac_SCH 0
scalar SlicingScenario.node[8].nic.mac1609_4 TooLittleTime_SCH 0
scalar SlicingScenario.node[8].nic.mac1609_4 TimesIntoBackoff_SCH 0
scalar SlicingScenario.node[8].nic.mac1609_4 SlotsBackoff_SCH 0
scalar SlicingScenario.node[8].nic.mac1609_4 NumInternalContention_SCH 0
scalar SlicingScenario.node[8].nic.mac1609_4 RemainingPacketsInEDCA_SCH 0
scalar SlicingScenario.node[8].nic.mac1609_4 totalBusyTime_SCH 35.360736
scalar SlicingScenario.node[8].veinsmobility startTime 3
scalar SlicingScenario.node[8].veinsmobility totalTime 94
scalar SlicingScenario.node[8].veinsmobility stopTime 98
scalar SlicingScenario.node[8].veinsmobility minSpeed 5.0019524609772
scalar SlicingScenario.node[8].veinsmobility maxSpeed 11.107498788754
scalar SlicingScenario.node[8].veinsmobility totalDistance 982.65209436871
scalar SlicingScenario.node[8].veinsmobility totalCO2Emission 173.80081675898
scalar SlicingScenario.node[9].appl txPackets_CCH_67 0
scalar SlicingScenario.node[9].appl rxPackets_CCH_67 0
scalar SlicingScenario.node[9].appl rxNeighborPackets_CCH_67 0
scalar SlicingScenario.node[9].appl meanDelay_CCH_67 0
scalar SlicingScenario.node[9].appl meanJitter_CCH_67 0
scalar SlicingScenario.node[9].appl meanRxPacketSize_CCH_67 0
scalar SlicingScenario.node[9].appl meanTxPacketSize_CCH_67 0
scalar SlicingScenario.node[9].appl meanRxThroughput_CCH_67 0
scalar SlicingScenario.node[9].appl meanTxThroughput_CCH_67 0
scalar SlicingScenario.node[9].appl rxTimeOfService_CCH_67 0
scalar SlicingScenario.node[9].appl txTimeOfService_CCH_67 0
scalar SlicingScenario.node[9].appl txPackets_SCH_41_67 0
scalar SlicingScenario.node[9].appl rxPackets_SCH_41_67 2048
scalar SlicingScenario.node[9].appl rxNeighborPackets_SCH_41_67 12707
scalar SlicingScenario.node[9].appl meanDelay_SCH_41_67 34.608839403301
scalar SlicingScenario.node[9].appl meanJitter_SCH_41_67 0.036020973772
scalar SlicingScenario.node[9].appl meanRxPacketSize_SCH_41_67 1438
scalar SlicingScenario.node[9].appl meanTxPacketSize_SCH_41_67 0
scalar SlicingScenario.node[9].appl meanRxThroughput_SCH_41_67 287566.57475284
scalar SlicingScenario.node[9].appl meanTxThroughput_SCH_41_67 0
scalar SlicingScenario.node[9].appl rxTimeOfService_SCH_41_67 81.970027358915
scalar SlicingScenario.node[9].appl txTimeOfService_SCH_41_67 0
scalar SlicingScenario.node[9].nic.phy80211p busyTime 0.37664741052634
scalar SlicingScenario.node[9].nic.phy80211p ncollisions 0
scalar SlicingScenario.node[9].nic.phy80211p UnderSensitivityPackets 1278
scalar SlicingScenario.node[9].nic.mac1609_4 ReceivedUnicastPackets_CCH 0
scalar SlicingScenario.node[9].nic.mac1609_4 ReceivedBroadcasts_CCH 0
scalar SlicingScenario.node[9].nic.mac1609_4 SentPackets_CCH 0
scalar SlicingScenario.node[9].nic.mac1609_4 SentAcknowledgements_CCH 0
scalar SlicingScenario.node[9].nic.mac1609_4 SNIRLostPackets_CCH 0
scalar SlicingScenario.node[9].nic.mac1609_4 RXTXLostPackets_CCH 0
scalar SlicingScenario.node[9].nic.mac1609_4 TotalLostPackets_CCH 0
scalar SlicingScenario.node[9].nic.mac1609_4 DroppedPacketsInMac_CCH 0
scalar SlicingScenario.node[9].nic.mac1609_4 TooLittleTime_CCH 0
scalar SlicingScenario.node[9].nic.mac1609_4 TimesIntoBackoff_CCH 0
scalar SlicingScenario.node[9].nic.mac1609_4 SlotsBackoff_CCH 0
scalar SlicingScenario.node[9].nic.mac1609_4 NumInternalContention_CCH 0
scalar SlicingScenario.node[9].nic.mac1609_4 RemainingPacketsInEDCA_CCH 0
scalar SlicingScenario.node[9].nic.mac1609_4 totalBusyTime_CCH 0
scalar SlicingScenario.node[9].nic.mac1609_4 ReceivedUnicastPackets_SCH 0
scalar SlicingScenario.node[9].nic.mac1609_4 ReceivedBroadcasts_SCH 18022
scalar SlicingScenario.node[9].nic.mac1609_4 SentPackets_SCH 0
scalar SlicingScenario.node[9].nic.mac1609_4 SentAcknowledgements_SCH 0
scalar SlicingScenario.node[9].nic.mac1609_4 SNIRLostPackets_SCH 0
scalar SlicingScenario.node[9].nic.mac1609_4 RXTXLostPackets_SCH 0
scalar SlicingScenario.node[9].nic.mac1609_4 TotalLostPackets_SCH 0
scalar SlicingScenario.node[9].nic.mac1609_4 DroppedPacketsInMac_SCH 0
scalar SlicingScenario.node[9].nic.mac1609_4 TooLittleTime_SCH 0
scalar SlicingScenario.node[9].nic.mac1609_4 TimesIntoBackoff_SCH 0
scalar SlicingScenario.node[9].nic.mac1609_4 SlotsBackoff_SCH 0
scalar SlicingScenario.node[9].nic.mac1609_4 NumInternalContention_SCH 0
scalar SlicingScenario.node[9].nic.mac1609_4 RemainingPacketsInEDCA_SCH 0
scalar SlicingScenario.node[9].nic.mac1609_4 totalBusyTime_SCH 35.781504
scalar SlicingScenario.node[9].veinsmobility startTime 3
scalar SlicingScenario.node[9].veinsmobility totalTime 94
scalar SlicingScenario.node[9].veinsmobility stopTime 98
scalar SlicingScenario.node[9].veinsmobility minSpeed 4.385855932042
scalar SlicingScenario.node[9].veinsmobility maxSpeed 11.099806276746
scalar SlicingScenario.node[9].veinsmobility totalDistance 980.96621644552
scalar SlicingScenario.node[9].veinsmobility totalCO2Emission 175.16282692336
scalar SlicingScenario.node[10].appl txPackets_CCH_73 0
scalar SlicingScenario.node[10].appl rxPackets_CCH_73 0
scalar SlicingScenario.node[10].appl rxNeighborPackets_CCH_73 0
scalar SlicingScenario.node[10].appl meanDelay_CCH_73 0
scalar SlicingScenario.node[10].appl meanJitter_CCH_73 0
scalar SlicingScenario.node[10].appl meanRxPacketSize_CCH_73 0
scalar SlicingScenario.node[10].appl meanTxPacketSize_CCH_73 0
scalar SlicingScenario.node[10].appl meanRxThroughput_CCH_73 0
scalar SlicingScenario.node[10].appl meanTxThroughput_CCH_73 0
scalar SlicingScenario.node[10].appl rxTimeOfService_CCH_73 0
scalar SlicingScenario.node[10].appl txTimeOfService_CCH_73 0
scalar SlicingScenario.node[10].appl txPackets_SCH_40_73 0
scalar SlicingScenario.node[10].appl rxPackets_SCH_40_73 288
scalar SlicingScenario.node[10].appl rxNeighborPackets_SCH_40_73 2979
scalar SlicingScenario.node[10].appl meanDelay_SCH_40_73 35.10410350431
scalar SlicingScenario.node[10].appl meanJitter_SCH_40_73 0.257564711197
scalar SlicingScenario.node[10].appl meanRxPacketSize_SCH_40_73 1510
scalar SlicingScenario.node[10].appl meanTxPacketSize_SCH_40_73 0
scalar SlicingScenario.node[10].appl meanRxThroughput_SCH_40_73 42808.69587338
scalar SlicingScenario.node[10].appl meanTxThroughput_SCH_40_73 0
scalar SlicingScenario.node[10].appl rxTimeOfService_SCH_40_73 81.269469415522
scalar SlicingScenario.node[10].appl txTimeOfService_SCH_40_73 0
scalar SlicingScenario.node[10].nic.phy80211p busyTime 0.37664741052634
scalar SlicingScenario.node[10].nic.phy80211p ncollisions 0
scalar SlicingScenario.node[10].nic.phy80211p UnderSensitivityPackets 1278
scalar SlicingScenario.node[10].nic.mac1609_4 ReceivedUnicastPackets_CCH 0
scalar SlicingScenario.node[10].nic.mac1609_4 ReceivedBroadcasts_CCH 0
scalar SlicingScenario.node[10].nic.mac1609_4 SentPackets_CCH 0
scalar SlicingScenario.node[10].nic.mac1609_4 SentAcknowledgements_CCH 0
scalar SlicingScenario.node[10].nic.mac1609_4 SNIRLostPackets_CCH 0
scalar SlicingScenario.node[10].nic.mac1609_4 RXTXLostPackets_CCH 0
scalar SlicingScenario.node[10].nic.mac1609_4 TotalLostPackets_CCH 0
scalar SlicingScenario.node[10].nic.mac1609_4 DroppedPacketsInMac_CCH 0
scalar SlicingScenario.node[10].nic.mac1609_4 TooLittleTime_CCH 0
scalar SlicingScenario.node[10].nic.mac1609_4 TimesIntoBackoff_CCH 0
scalar SlicingScenario.node[10].nic.mac1609_4 SlotsBackoff_CCH 0
scalar SlicingScenario.node[10].nic.mac1609_4 NumInternalContention_CCH 0
scalar SlicingScenario.node[10].nic.mac1609_4 RemainingPacketsInEDCA_CCH 0
scalar SlicingScenario.node[10].nic.mac1609_4 totalBusyTime_CCH 0
scalar SlicingScenario.node[10].nic.mac1609_4 ReceivedUnicastPackets_SCH 0
scalar SlicingScenario.node[10].nic.mac1609_4 ReceivedBroadcasts_SCH 18022
scalar SlicingScenario.node[10].nic.mac1609_4 SentPackets_SCH 0
scalar SlicingScenario.node[10].nic.mac1609_4 SentAcknowledgements_SCH 0
scalar SlicingScenario.node[10].nic.mac1609_4 SNIRLostPackets_SCH 0
scalar SlicingScenario.node[10].nic.mac1609_4 RXTXLostPackets_SCH 0
scalar SlicingScenario.node[10].nic.mac1609_4 TotalLostPackets_SCH 0
scalar SlicingScenario.node[10].nic.mac1609_4 DroppedPacketsInMac_SCH 0
scalar SlicingScenario.node[10].nic.mac1609_4 TooLittleTime_SCH 0
scalar SlicingScenario.node[10].nic.mac1609_4 TimesIntoBackoff_SCH 0
scalar SlicingScenario.node[10].nic.mac1609_4 SlotsBackoff_SCH 0
scalar SlicingScenario.node[10].nic.mac1609_4 NumInternalContention_SCH 0
scalar SlicingScenario.node[10].nic.mac1609_4 RemainingPacketsInEDCA_SCH 0
scalar SlicingScenario.node[10].nic.mac1609_4 totalBusyTime_SCH 35.781504
scalar SlicingScenario.node[10].veinsmobility startTime 3
scalar SlicingScenario.node[10].veinsmobility totalTime 94
scalar SlicingScenario.node[10].veinsmobility stopTime 98
scalar SlicingScenario.node[10].veinsmobility minSpeed 4.6278727251543
scalar SlicingScenario.node[10].veinsmobility maxSpeed 11.106136658359
scalar SlicingScenario.node[10].veinsmobility totalDistance 984.64792505126
scalar SlicingScenario.node[10].veinsmobility totalCO2Emission 173.18219225952
scalar SlicingScenario.node[12].appl txPackets_CCH_85 0
scalar SlicingScenario.node[12].appl rxPackets_CCH_85 0
scalar SlicingScenario.node[12].appl rxNeighborPackets_CCH_85 0
scalar SlicingScenario.node[12].appl meanDelay_CCH_85 0
scalar SlicingScenario.node[12].appl meanJitter_CCH_85 0
scalar SlicingScenario.node[12].appl meanRxPacketSize_CCH_85 0
scalar SlicingScenario.node[12].appl meanTxPacketSize_CCH_85 0
scalar SlicingScenario.node[12].appl meanRxThroughput_CCH_85 0
scalar SlicingScenario.node[12].appl meanTxThroughput_CCH_85 0
scalar SlicingScenario.node[12].appl rxTimeOfService_CCH_85 0
scalar SlicingScenario.node[12].appl txTimeOfService_CCH_85 0
scalar SlicingScenario.node[12].appl txPackets_SCH_41_85 0
scalar SlicingScenario.node[12].appl rxPackets_SCH_41_85 1421
scalar SlicingScenario.node[12].appl rxNeighborPackets_SCH_41_85 13691
scalar SlicingScenario.node[12].appl meanDelay_SCH_41_85 45.972927945034
scalar SlicingScenario.node[12].appl meanJitter_SCH_41_85 0.053140867167
scalar SlicingScenario.node[12].appl meanRxPacketSize_SCH_41_85 1438
scalar SlicingScenario.node[12].appl meanTxPacketSize_SCH_41_85 0
scalar SlicingScenario.node[12].appl meanRxThroughput_SCH_41_85 264024.45003225
scalar SlicingScenario.node[12].appl meanTxThroughput_SCH_41_85 0
scalar SlicingScenario.node[12].appl rxTimeOfService_SCH_41_85 61.940021077602
scalar SlicingScenario.node[12].appl txTimeOfService_SCH_41_85 0
scalar SlicingScenario.node[12].nic.phy80211p busyTime 0.38562189473685
scalar SlicingScenario.node[12].nic.phy80211p ncollisions 0
scalar SlicingScenario.node[12].nic.phy80211p UnderSensitivityPackets 1275
scalar SlicingScenario.node[12].nic.mac1609_4 ReceivedUnicastPackets_CCH 0
scalar SlicingScenario.node[12].nic.mac1609_4 ReceivedBroadcasts_CCH 0
scalar SlicingScenario.node[12].nic.mac1609_4 SentPackets_CCH 0
scalar SlicingScenario.node[12].nic.mac1609_4 SentAcknowledgements_CCH 0
scalar SlicingScenario.node[12].nic.mac1609_4 SNIRLostPackets_CCH 0
scalar SlicingScenario.node[12].nic.mac1609_4 RXTXLostPackets_CCH 0
scalar SlicingScenario.node[12].nic.mac1609_4 TotalLostPackets_CCH 0
scalar SlicingScenario.node[12].nic.mac1609_4 DroppedPacketsInMac_CCH 0
scalar SlicingScenario.node[12].nic.mac1609_4 TooLittleTime_CCH 0
scalar SlicingScenario.node[12].nic.mac1609_4 TimesIntoBackoff_CCH 0
scalar SlicingScenario.node[12].nic.mac1609_4 SlotsBackoff_CCH 0
scalar SlicingScenario.node[12].nic.mac1609_4 NumInternalContention_CCH 0
scalar SlicingScenario.node[12].nic.mac1609_4 RemainingPacketsInEDCA_CCH 0
scalar SlicingScenario.node[12].nic.mac1609_4 totalBusyTime_CCH 0
scalar SlicingScenario.node[12].nic.mac1609_4 ReceivedUnicastPackets_SCH 0
scalar SlicingScenario.node[12].nic.mac1609_4 ReceivedBroadcasts_SCH 18452
scalar SlicingScenario.node[12].nic.mac1609_4 SentPackets_SCH 0
scalar SlicingScenario.node[12].nic.mac1609_4 SentAcknowledgements_SCH 0
scalar SlicingScenario.node[12].nic.mac1609_4 SNIRLostPackets_SCH 0
scalar SlicingScenario.node[12].nic.mac1609_4 RXTXLostPackets_SCH 0
scalar SlicingScenario.node[12].nic.mac1609_4 TotalLostPackets_SCH 0
scalar SlicingScenario.node[12].nic.mac1609_4 DroppedPacketsInMac_SCH 0
scalar SlicingScenario.node[12].nic.mac1609_4 TooLittleTime_SCH 0
scalar SlicingScenario.node[12].nic.mac1609_4 TimesIntoBackoff_SCH 0
scalar SlicingScenario.node[12].nic.mac1609_4 SlotsBackoff_SCH 0
scalar SlicingScenario.node[12].nic.mac1609_4 NumInternalContention_SCH 0
scalar SlicingScenario.node[12].nic.mac1609_4 RemainingPacketsInEDCA_SCH 0
scalar SlicingScenario.node[12].nic.mac1609_4 totalBusyTime_SCH 36.63408
scalar SlicingScenario.node[12].veinsmobility startTime 5
scalar SlicingScenario.node[12].veinsmobility totalTime 94
scalar SlicingScenario.node[12].veinsmobility stopTime 100
scalar SlicingScenario.node[12].veinsmobility minSpeed 4.9236447142712
scalar SlicingScenario.node[12].veinsmobility maxSpeed 11.108950363486
scalar SlicingScenario.node[12].veinsmobility totalDistance 981.31871178904
scalar SlicingScenario.node[12].veinsmobility totalCO2Emission 172.20361814606
scalar SlicingScenario.node[14].appl txPackets_CCH_97 0
scalar SlicingScenario.node[14].appl rxPackets_CCH_97 0
scalar SlicingScenario.node[14].appl rxNeighborPackets_CCH_97 0
scalar SlicingScenario.node[14].appl meanDelay_CCH_97 0
scalar SlicingScenario.node[14].appl meanJitter_CCH_97 0
scalar SlicingScenario.node[14].appl meanRxPacketSize_CCH_97 0
scalar SlicingScenario.node[14].appl meanTxPacketSize_CCH_97 0
scalar SlicingScenario.node[14].appl meanRxThroughput_CCH_97 0
scalar SlicingScenario.node[14].appl meanTxThroughput_CCH_97 0
scalar SlicingScenario.node[14].appl rxTimeOfService_CCH_97 0
scalar SlicingScenario.node[14].appl txTimeOfService_CCH_97 0
scalar SlicingScenario.node[14].appl txPackets_SCH_40_97 0
scalar SlicingScenario.node[14].appl rxPackets_SCH_40_97 205
scalar SlicingScenario.node[14].appl rxNeighborPackets_SCH_40_97 3099
scalar SlicingScenario.node[14].appl meanDelay_SCH_40_97 45.264739071417
scalar SlicingScenario.node[14].appl meanJitter_SCH_40_97 0.370186280098
scalar SlicingScenario.node[14].appl meanRxPacketSize_SCH_40_97 1510
scalar SlicingScenario.node[14].appl meanTxPacketSize_SCH_40_97 0
scalar SlicingScenario.node[14].appl meanRxThroughput_SCH_40_97 39267.388243883
scalar SlicingScenario.node[14].appl meanTxThroughput_SCH_40_97 0
scalar SlicingScenario.node[14].appl rxTimeOfService_SCH_40_97 63.065055017653
scalar SlicingScenario.node[14].appl txTimeOfService_SCH_40_97 0
scalar SlicingScenario.node[14].nic.phy80211p busyTime 0.38114930526318
scalar SlicingScenario.node[14].nic.phy80211p ncollisions 0
scalar SlicingScenario.node[14].nic.phy80211p UnderSensitivityPackets 1489
scalar SlicingScenario.node[14].nic.mac1609_4 ReceivedUnicastPackets_CCH 0
scalar SlicingScenario.node[14].nic.mac1609_4 ReceivedBroadcasts_CCH 0
scalar SlicingScenario.node[14].nic.mac1609_4 SentPackets_CCH 0
scalar SlicingScenario.node[14].nic.mac1609_4 SentAcknowledgements_CCH 0
scalar SlicingScenario.node[14].nic.mac1609_4 SNIRLostPackets_CCH 0
scalar SlicingScenario.node[14].nic.mac1609_4 RXTXLostPackets_CCH 0
scalar SlicingScenario.node[14].nic.mac1609_4 TotalLostPackets_CCH 0
scalar SlicingScenario.node[14].nic.mac1609_4 DroppedPacketsInMac_CCH 0
scalar SlicingScenario.node[14].nic.mac1609_4 TooLittleTime_CCH 0
scalar SlicingScenario.node[14].nic.mac1609_4 TimesIntoBackoff_CCH 0
scalar SlicingScenario.node[14].nic.mac1609_4 SlotsBackoff_CCH 0
scalar SlicingScenario.node[14].nic.mac1609_4 NumInternalContention_CCH 0
scalar SlicingScenario.node[14].nic.mac1609_4 RemainingPacketsInEDCA_CCH 0
scalar SlicingScenario.node[14].nic.mac1609_4 totalBusyTime_CCH 0
scalar SlicingScenario.node[14].nic.mac1609_4 ReceivedUnicastPackets_SCH 0
scalar SlicingScenario.node[14].nic.mac1609_4 ReceivedBroadcasts_SCH 18238
scalar SlicingScenario.node[14].nic.mac1609_4 SentPackets_SCH 0
scalar SlicingScenario.node[14].nic.mac1609_4 SentAcknowledgements_SCH 0
scalar SlicingScenario.node[14].nic.mac1609_4 SNIRLostPackets_SCH 0
scalar SlicingScenario.node[14].nic.mac1609_4 RXTXLostPackets_SCH 0
scalar SlicingScenario.node[14].nic.mac1609_4 TotalLostPackets_SCH 0
scalar SlicingScenario.node[14].nic.mac1609_4 DroppedPacketsInMac_SCH 0
scalar SlicingScenario.node[14].nic.mac1609_4 TooLittleTime_SCH 0
scalar SlicingScenario.node[14].nic.mac1609_4 TimesIntoBackoff_SCH 0
scalar SlicingScenario.node[14].nic.mac1609_4 SlotsBackoff_SCH 0
scalar SlicingScenario.node[14].nic.mac1609_4 NumInternalContention_SCH 0
scalar SlicingScenario.node[14].nic.mac1609_4 RemainingPacketsInEDCA_SCH 0
scalar SlicingScenario.node[14].nic.mac1609_4 totalBusyTime_SCH 36.209184
scalar SlicingScenario.node[14].veinsmobility startTime 5
scalar SlicingScenario.node[14].veinsmobility totalTime 94
scalar SlicingScenario.node[14].veinsmobility stopTime 100
scalar SlicingScenario.node[14].veinsmobility minSpeed 4.5567180633005
scalar SlicingScenario.node[14].veinsmobility maxSpeed 11.103752700626
scalar SlicingScenario.node[14].veinsmobility totalDistance 977.37621236965
scalar SlicingScenario.node[14].veinsmobility totalCO2Emission 173.96135332051
scalar SlicingScenario.node[13].appl txPackets_CCH_91 0
scalar SlicingScenario.node[13].appl rxPackets_CCH_91 0
scalar SlicingScenario.node[13].appl rxNeighborPackets_CCH_91 0
scalar SlicingScenario.node[13].appl meanDelay_CCH_91 0
scalar SlicingScenario.node[13].appl meanJitter_CCH_91 0
scalar SlicingScenario.node[13].appl meanRxPacketSize_CCH_91 0
scalar SlicingScenario.node[13].appl meanTxPacketSize_CCH_91 0
scalar SlicingScenario.node[13].appl meanRxThroughput_CCH_91 0
scalar SlicingScenario.node[13].appl meanTxThroughput_CCH_91 0
scalar SlicingScenario.node[13].appl rxTimeOfService_CCH_91 0
scalar SlicingScenario.node[13].appl txTimeOfService_CCH_91 0
scalar SlicingScenario.node[13].appl txPackets_SCH_40_91 0
scalar SlicingScenario.node[13].appl rxPackets_SCH_40_91 218
scalar SlicingScenario.node[13].appl rxNeighborPackets_SCH_40_91 3122
scalar SlicingScenario.node[13].appl meanDelay_SCH_40_91 44.126634933775
scalar SlicingScenario.node[13].appl meanJitter_SCH_40_91 0.348075788324
scalar SlicingScenario.node[13].appl meanRxPacketSize_SCH_40_91 1510
scalar SlicingScenario.node[13].appl meanTxPacketSize_SCH_40_91 0
scalar SlicingScenario.node[13].appl meanRxThroughput_SCH_40_91 40328.164050237
scalar SlicingScenario.node[13].appl meanTxThroughput_SCH_40_91 0
scalar SlicingScenario.node[13].appl rxTimeOfService_SCH_40_91 65.300269973101
scalar SlicingScenario.node[13].appl txTimeOfService_SCH_40_91 0
scalar SlicingScenario.node[13].nic.phy80211p busyTime 0.38562189473685
scalar SlicingScenario.node[13].nic.phy80211p ncollisions 0
scalar SlicingScenario.node[13].nic.phy80211p UnderSensitivityPackets 1275
scalar SlicingScenario.node[13].nic.mac1609_4 ReceivedUnicastPackets_CCH 0
scalar SlicingScenario.node[13].nic.mac1609_4 ReceivedBroadcasts_CCH 0
scalar SlicingScenario.node[13].nic.mac1609_4 SentPackets_CCH 0
scalar SlicingScenario.node[13].nic.mac1609_4 SentAcknowledgements_CCH 0
scalar SlicingScenario.node[13].nic.mac1609_4 SNIRLostPackets_CCH 0
scalar SlicingScenario.node[13].nic.mac1609_4 RXTXLostPackets_CCH 0
scalar SlicingScenario.node[13].nic.mac1609_4 TotalLostPackets_CCH 0
scalar SlicingScenario.node[13].nic.mac1609_4 DroppedPacketsInMac_CCH 0
scalar SlicingScenario.node[13].nic.mac1609_4 TooLittleTime_CCH 0
scalar SlicingScenario.node[13].nic.mac1609_4 TimesIntoBackoff_CCH 0
scalar SlicingScenario.node[13].nic.mac1609_4 SlotsBackoff_CCH 0
scalar SlicingScenario.node[13].nic.mac1609_4 NumInternalContention_CCH 0
scalar SlicingScenario.node[13].nic.mac1609_4 RemainingPacketsInEDCA_CCH 0
scalar SlicingScenario.node[13].nic.mac1609_4 totalBusyTime_CCH 0
scalar SlicingScenario.node[13].nic.mac1609_4 ReceivedUnicastPackets_SCH 0
scalar SlicingScenario.node[13].nic.mac1609_4 ReceivedBroadcasts_SCH 18452
scalar SlicingScenario.node[13].nic.mac1609_4 SentPackets_SCH 0
scalar SlicingScenario.node[13].nic.mac1609_4 SentAcknowledgements_SCH 0
scalar SlicingScenario.node[13].nic.mac1609_4 SNIRLostPackets_SCH 0
scalar SlicingScenario.node[13].nic.mac1609_4 RXTXLostPackets_SCH 0
scalar SlicingScenario.node[13].nic.mac1609_4 TotalLostPackets_SCH 0
scalar SlicingScenario.node[13].nic.mac1609_4 DroppedPacketsInMac_SCH 0
scalar SlicingScenario.node[13].nic.mac1609_4 TooLittleTime_SCH 0
scalar SlicingScenario.node[13].nic.mac1609_4 TimesIntoBackoff_SCH 0
scalar SlicingScenario.node[13].nic.mac1609_4 SlotsBackoff_SCH 0
scalar SlicingScenario.node[13].nic.mac1609_4 NumInternalContention_SCH 0
scalar SlicingScenario.node[13].nic.mac1609_4 RemainingPacketsInEDCA_SCH 0
scalar SlicingScenario.node[13].nic.mac1609_4 totalBusyTime_SCH 36.63408
scalar SlicingScenario.node[13].veinsmobility startTime 5
scalar SlicingScenario.node[13].veinsmobility totalTime 94
scalar SlicingScenario.node[13].veinsmobility stopTime 100
scalar SlicingScenario.node[13].veinsmobility minSpeed 5.1370542844916
scalar SlicingScenario.node[13].veinsmobility maxSpeed 11.106974712936
scalar SlicingScenario.node[13].veinsmobility totalDistance 981.48368739845
scalar SlicingScenario.node[13].veinsmobility totalCO2Emission 174.03627513454
scalar SlicingScenario.node[15].appl txPackets_CCH_103 0
scalar SlicingScenario.node[15].appl rxPackets_CCH_103 0
scalar SlicingScenario.node[15].appl rxNeighborPackets_CCH_103 0
scalar SlicingScenario.node[15].appl meanDelay_CCH_103 0
scalar SlicingScenario.node[15].appl meanJitter_CCH_103 0
scalar SlicingScenario.node[15].appl meanRxPacketSize_CCH_103 0
scalar SlicingScenario.node[15].appl meanTxPacketSize_CCH_103 0
scalar SlicingScenario.node[15].appl meanRxThroughput_CCH_103 0
scalar SlicingScenario.node[15].appl meanTxThroughput_CCH_103 0
scalar SlicingScenario.node[15].appl rxTimeOfService_CCH_103 0
scalar SlicingScenario.node[15].appl txTimeOfService_CCH_103 0
scalar SlicingScenario.node[15].appl txPackets_SCH_40_103 0
scalar SlicingScenario.node[15].appl rxPackets_SCH_40_103 204
scalar SlicingScenario.node[15].appl rxNeighborPackets_SCH_40_103 3177
scalar SlicingScenario.node[15].appl meanDelay_SCH_40_103 46.559307036153
scalar SlicingScenario.node[15].appl meanJitter_SCH_40_103 0.377247590236
scalar SlicingScenario.node[15].appl meanRxPacketSize_SCH_40_103 1510
scalar SlicingScenario.node[15].appl meanTxPacketSize_SCH_40_103 0
scalar SlicingScenario.node[15].appl meanRxThroughput_SCH_40_103 39183.95129055
scalar SlicingScenario.node[15].appl meanTxThroughput_SCH_40_103 0
scalar SlicingScenario.node[15].appl rxTimeOfService_SCH_40_103 62.891054088114
scalar SlicingScenario.node[15].appl txTimeOfService_SCH_40_103 0
scalar SlicingScenario.node[15].nic.phy80211p busyTime 0.38603100000001
scalar SlicingScenario.node[15].nic.phy80211p ncollisions 0
scalar SlicingScenario.node[15].nic.phy80211p UnderSensitivityPackets 1276
scalar SlicingScenario.node[15].nic.mac1609_4 ReceivedUnicastPackets_CCH 0
scalar SlicingScenario.node[15].nic.mac1609_4 ReceivedBroadcasts_CCH 0
scalar SlicingScenario.node[15].nic.mac1609_4 SentPackets_CCH 0
scalar SlicingScenario.node[15].nic.mac1609_4 SentAcknowledgements_CCH 0
scalar SlicingScenario.node[15].nic.mac1609_4 SNIRLostPackets_CCH 0
scalar SlicingScenario.node[15].nic.mac1609_4 RXTXLostPackets_CCH 0
scalar SlicingScenario.node[15].nic.mac1609_4 TotalLostPackets_CCH 0
scalar SlicingScenario.node[15].nic.mac1609_4 DroppedPacketsInMac_CCH 0
scalar SlicingScenario.node[15].nic.mac1609_4 TooLittleTime_CCH 0
scalar SlicingScenario.node[15].nic.mac1609_4 TimesIntoBackoff_CCH 0
scalar SlicingScenario.node[15].nic.mac1609_4 SlotsBackoff_CCH 0
scalar SlicingScenario.node[15].nic.mac1609_4 NumInternalContention_CCH 0
scalar SlicingScenario.node[15].nic.mac1609_4 RemainingPacketsInEDCA_CCH 0
scalar SlicingScenario.node[15].nic.mac1609_4 totalBusyTime_CCH 0
scalar SlicingScenario.node[15].nic.mac1609_4 ReceivedUnicastPackets_SCH 0
scalar SlicingScenario.node[15].nic.mac1609_4 ReceivedBroadcasts_SCH 18666
scalar SlicingScenario.node[15].nic.mac1609_4 SentPackets_SCH 0
scalar SlicingScenario.node[15].nic.mac1609_4 SentAcknowledgements_SCH 0
scalar SlicingScenario.node[15].nic.mac1609_4 SNIRLostPackets_SCH 0
scalar SlicingScenario.node[15].nic.mac1609_4 RXTXLostPackets_SCH 0
scalar SlicingScenario.node[15].nic.mac1609_4 TotalLostPackets_SCH 0
scalar SlicingScenario.node[15].nic.mac1609_4 DroppedPacketsInMac_SCH 0
scalar SlicingScenario.node[15].nic.mac1609_4 TooLittleTime_SCH 0
scalar SlicingScenario.node[15].nic.mac1609_4 TimesIntoBackoff_SCH 0
scalar SlicingScenario.node[15].nic.mac1609_4 SlotsBackoff_SCH 0
scalar SlicingScenario.node[15].nic.mac1609_4 NumInternalContention_SCH 0
scalar SlicingScenario.node[15].nic.mac1609_4 RemainingPacketsInEDCA_SCH 0
scalar SlicingScenario.node[15].nic.mac1609_4 totalBusyTime_SCH 37.058976
scalar SlicingScenario.node[15].veinsmobility startTime 5
scalar SlicingScenario.node[15].veinsmobility totalTime 95
scalar SlicingScenario.node[15].veinsmobility stopTime 101
scalar SlicingScenario.node[15].veinsmobility minSpeed 3.872767443412
scalar SlicingScenario.node[15].veinsmobility maxSpeed 11.1078946622
scalar SlicingScenario.node[15].veinsmobility totalDistance 983.4809132035
scalar SlicingScenario.node[15].veinsmobility totalCO2Emission 176.53703817335
scalar SlicingScenario.node[18].appl txPackets_CCH_121 0
scalar SlicingScenario.node[18].appl rxPackets_CCH_121 0
scalar SlicingScenario.node[18].appl rxNeighborPackets_CCH_121 0
scalar SlicingScenario.node[18].appl meanDelay_CCH_121 0
scalar SlicingScenario.node[18].appl meanJitter_CCH_121 0
scalar SlicingScenario.node[18].appl meanRxPacketSize_CCH_121 0
scalar SlicingScenario.node[18].appl meanTxPacketSize_CCH_121 0
scalar SlicingScenario.node[18].appl meanRxThroughput_CCH_121 0
scalar SlicingScenario.node[18].appl meanTxThroughput_CCH_121 0
scalar SlicingScenario.node[18].appl rxTimeOfService_CCH_121 0
scalar SlicingScenario.node[18].appl txTimeOfService_CCH_121 0
scalar SlicingScenario.node[18].appl txPackets_SCH_41_121 0
scalar SlicingScenario.node[18].appl rxPackets_SCH_41_121 854
scalar SlicingScenario.node[18].appl rxNeighborPackets_SCH_41_121 14605
scalar SlicingScenario.node[18].appl meanDelay_SCH_41_121 58.295566970893
scalar SlicingScenario.node[18].appl meanJitter_SCH_41_121 0.090831028179
scalar SlicingScenario.node[18].appl meanRxPacketSize_SCH_41_121 1438
scalar SlicingScenario.node[18].appl meanTxPacketSize_SCH_41_121 0
scalar SlicingScenario.node[18].appl meanRxThroughput_SCH_41_121 229257.98044303
scalar SlicingScenario.node[18].appl meanTxThroughput_SCH_41_121 0
scalar SlicingScenario.node[18].appl rxTimeOfService_SCH_41_121 42.870132507523
scalar SlicingScenario.node[18].appl txTimeOfService_SCH_41_121 0
scalar SlicingScenario.node[18].nic.phy80211p busyTime 0.39446551578948
scalar SlicingScenario.node[18].nic.phy80211p ncollisions 0
scalar SlicingScenario.node[18].nic.phy80211p UnderSensitivityPackets 1279
scalar SlicingScenario.node[18].nic.mac1609_4 ReceivedUnicastPackets_CCH 0
scalar SlicingScenario.node[18].nic.mac1609_4 ReceivedBroadcasts_CCH 0
scalar SlicingScenario.node[18].nic.mac1609_4 SentPackets_CCH 0
scalar SlicingScenario.node[18].nic.mac1609_4 SentAcknowledgements_CCH 0
scalar SlicingScenario.node[18].nic.mac1609_4 SNIRLostPackets_CCH 0
scalar SlicingScenario.node[18].nic.mac1609_4 RXTXLostPackets_CCH 0
scalar SlicingScenario.node[18].nic.mac1609_4 TotalLostPackets_CCH 0
scalar SlicingScenario.node[18].nic.mac1609_4 DroppedPacketsInMac_CCH 0
scalar SlicingScenario.node[18].nic.mac1609_4 TooLittleTime_CCH 0
scalar SlicingScenario.node[18].nic.mac1609_4 TimesIntoBackoff_CCH 0
scalar SlicingScenario.node[18].nic.mac1609_4 SlotsBackoff_CCH 0
scalar SlicingScenario.node[18].nic.mac1609_4 NumInternalContention_CCH 0
scalar SlicingScenario.node[18].nic.mac1609_4 RemainingPacketsInEDCA_CCH 0
scalar SlicingScenario.node[18].nic.mac1609_4 totalBusyTime_CCH 0
scalar SlicingScenario.node[18].nic.mac1609_4 ReceivedUnicastPackets_SCH 0
scalar SlicingScenario.node[18].nic.mac1609_4 ReceivedBroadcasts_SCH 18875
scalar SlicingScenario.node[18].nic.mac1609_4 SentPackets_SCH 0
scalar SlicingScenario.node[18].nic.mac1609_4 SentAcknowledgements_SCH 0
scalar SlicingScenario.node[18].nic.mac1609_4 SNIRLostPackets_SCH 0
scalar SlicingScenario.node[18].nic.mac1609_4 RXTXLostPackets_SCH 0
scalar SlicingScenario.node[18].nic.mac1609_4 TotalLostPackets_SCH 0
scalar SlicingScenario.node[18].nic.mac1609_4 DroppedPacketsInMac_SCH 0
scalar SlicingScenario.node[18].nic.mac1609_4 TooLittleTime_SCH 0
scalar SlicingScenario.node[18].nic.mac1609_4 TimesIntoBackoff_SCH 0
scalar SlicingScenario.node[18].nic.mac1609_4 SlotsBackoff_SCH 0
scalar SlicingScenario.node[18].nic.mac1609_4 NumInternalContention_SCH 0
scalar SlicingScenario.node[18].nic.mac1609_4 RemainingPacketsInEDCA_SCH 0
scalar SlicingScenario.node[18].nic.mac1609_4 totalBusyTime_SCH 37.474224
scalar SlicingScenario.node[18].veinsmobility startTime 7
scalar SlicingScenario.node[18].veinsmobility totalTime 94
scalar SlicingScenario.node[18].veinsmobility stopTime 102
scalar SlicingScenario.node[18].veinsmobility minSpeed 4.8968831758781
scalar SlicingScenario.node[18].veinsmobility maxSpeed 11.109423253699
scalar SlicingScenario.node[18].veinsmobility totalDistance 981.89733124662
scalar SlicingScenario.node[18].veinsmobility totalCO2Emission 174.46877192047
scalar SlicingScenario.node[19].appl txPackets_CCH_127 0
scalar SlicingScenario.node[19].appl rxPackets_CCH_127 0
scalar SlicingScenario.node[19].appl rxNeighborPackets_CCH_127 0
scalar SlicingScenario.node[19].appl meanDelay_CCH_127 0
scalar SlicingScenario.node[19].appl meanJitter_CCH_127 0
scalar SlicingScenario.node[19].appl meanRxPacketSize_CCH_127 0
scalar SlicingScenario.node[19].appl meanTxPacketSize_CCH_127 0
scalar SlicingScenario.node[19].appl meanRxThroughput_CCH_127 0
scalar SlicingScenario.node[19].appl meanTxThroughput_CCH_127 0
scalar SlicingScenario.node[19].appl rxTimeOfService_CCH_127 0
scalar SlicingScenario.node[19].appl txTimeOfService_CCH_127 0
scalar SlicingScenario.node[19].appl txPackets_SCH_40_127 0
scalar SlicingScenario.node[19].appl rxPackets_SCH_40_127 106
scalar SlicingScenario.node[19].appl rxNeighborPackets_SCH_40_127 3232
scalar SlicingScenario.node[19].appl meanDelay_SCH_40_127 60.375820254217
scalar SlicingScenario.node[19].appl meanJitter_SCH_40_127 0.737213351045
scalar SlicingScenario.node[19].appl meanRxPacketSize_SCH_40_127 1510
scalar SlicingScenario.node[19].appl meanTxPacketSize_SCH_40_127 0
scalar SlicingScenario.node[19].appl meanRxThroughput_SCH_40_127 33071.316973167
scalar SlicingScenario.node[19].appl meanTxThroughput_SCH_40_127 0
scalar SlicingScenario.node[19].appl rxTimeOfService_SCH_40_127 38.718748365508
scalar SlicingScenario.node[19].appl txTimeOfService_SCH_40_127 0
scalar SlicingScenario.node[19].nic.phy80211p busyTime 0.3855349894737
scalar SlicingScenario.node[19].nic.phy80211p ncollisions 0
scalar SlicingScenario.node[19].nic.phy80211p UnderSensitivityPackets 1706
scalar SlicingScenario.node[19].nic.mac1609_4 ReceivedUnicastPackets_CCH 0
scalar SlicingScenario.node[19].nic.mac1609_4 ReceivedBroadcasts_CCH 0
scalar SlicingScenario.node[19].nic.mac1609_4 SentPackets_CCH 0
scalar SlicingScenario.node[19].nic.mac1609_4 SentAcknowledgements_CCH 0
scalar SlicingScenario.node[19].nic.mac1609_4 SNIRLostPackets_CCH 0
scalar SlicingScenario.node[19].nic.mac1609_4 RXTXLostPackets_CCH 0
scalar SlicingScenario.node[19].nic.mac1609_4 TotalLostPackets_CCH 0
scalar SlicingScenario.node[19].nic.mac1609_4 DroppedPacketsInMac_CCH 0
scalar SlicingScenario.node[19].nic.mac1609_4 TooLittleTime_CCH 0
scalar SlicingScenario.node[19].nic.mac1609_4 TimesIntoBackoff_CCH 0
scalar SlicingScenario.node[19].nic.mac1609_4 SlotsBackoff_CCH 0
scalar SlicingScenario.node[19].nic.mac1609_4 NumInternalContention_CCH 0
scalar SlicingScenario.node[19].nic.mac1609_4 RemainingPacketsInEDCA_CCH 0
scalar SlicingScenario.node[19].nic.mac1609_4 totalBusyTime_CCH 0
scalar SlicingScenario.node[19].nic.mac1609_4 ReceivedUnicastPackets_SCH 0
scalar SlicingScenario.node[19].nic.mac1609_4 ReceivedBroadcasts_SCH 18448
scalar SlicingScenario.node[19].nic.mac1609_4 SentPackets_SCH 0
scalar SlicingScenario.node[19].nic.mac1609_4 SentAcknowledgements_SCH 0
scalar SlicingScenario.node[19].nic.mac1609_4 SNIRLostPackets_SCH 0
scalar SlicingScenario.node[19].nic.mac1609_4 RXTXLostPackets_SCH 0
scalar SlicingScenario.node[19].nic.mac1609_4 TotalLostPackets_SCH 0
scalar SlicingScenario.node[19].nic.mac1609_4 DroppedPacketsInMac_SCH 0
scalar SlicingScenario.node[19].nic.mac1609_4 TooLittleTime_SCH 0
scalar SlicingScenario.node[19].nic.mac1609_4 TimesIntoBackoff_SCH 0
scalar SlicingScenario.node[19].nic.mac1609_4 SlotsBackoff_SCH 0
scalar SlicingScenario.node[19].nic.mac1609_4 NumInternalContention_SCH 0
scalar SlicingScenario.node[19].nic.mac1609_4 RemainingPacketsInEDCA_SCH 0
scalar SlicingScenario.node[19].nic.mac1609_4 totalBusyTime_SCH 36.625824
scalar SlicingScenario.node[19].veinsmobility startTime 7
scalar SlicingScenario.node[19].veinsmobility totalTime 94
scalar SlicingScenario.node[19].veinsmobility stopTime 102
scalar SlicingScenario.node[19].veinsmobility minSpeed 3.4176282310179
scalar SlicingScenario.node[19].veinsmobility maxSpeed 11.109877749942
scalar SlicingScenario.node[19].veinsmobility totalDistance 978.8372105464
scalar SlicingScenario.node[19].veinsmobility totalCO2Emission 176.07546232823
scalar SlicingScenario.node[16].appl txPackets_CCH_109 0
scalar SlicingScenario.node[16].appl rxPackets_CCH_109 0
scalar SlicingScenario.node[16].appl rxNeighborPackets_CCH_109 0
scalar SlicingScenario.node[16].appl meanDelay_CCH_109 0
scalar SlicingScenario.node[16].appl meanJitter_CCH_109 0
scalar SlicingScenario.node[16].appl meanRxPacketSize_CCH_109 0
scalar SlicingScenario.node[16].appl meanTxPacketSize_CCH_109 0
scalar SlicingScenario.node[16].appl meanRxThroughput_CCH_109 0
scalar SlicingScenario.node[16].appl meanTxThroughput_CCH_109 0
scalar SlicingScenario.node[16].appl rxTimeOfService_CCH_109 0
scalar SlicingScenario.node[16].appl txTimeOfService_CCH_109 0
scalar SlicingScenario.node[16].appl txPackets_SCH_40_109 0
scalar SlicingScenario.node[16].appl rxPackets_SCH_40_109 117
scalar SlicingScenario.node[16].appl rxNeighborPackets_SCH_40_109 3264
scalar SlicingScenario.node[16].appl meanDelay_SCH_40_109 59.039741642073
scalar SlicingScenario.node[16].appl meanJitter_SCH_40_109 0.667323818579
scalar SlicingScenario.node[16].appl meanRxPacketSize_SCH_40_109 1510
scalar SlicingScenario.node[16].appl meanTxPacketSize_SCH_40_109 0
scalar SlicingScenario.node[16].appl meanRxThroughput_SCH_40_109 34283.693788707
scalar SlicingScenario.node[16].appl meanTxThroughput_SCH_40_109 0
scalar SlicingScenario.node[16].appl rxTimeOfService_SCH_40_109 41.225429462491
scalar SlicingScenario.node[16].appl txTimeOfService_SCH_40_109 0
scalar SlicingScenario.node[16].nic.phy80211p busyTime 0.39005810526317
scalar SlicingScenario.node[16].nic.phy80211p ncollisions 0
scalar SlicingScenario.node[16].nic.phy80211p UnderSensitivityPackets 1490
scalar SlicingScenario.node[16].nic.mac1609_4 ReceivedUnicastPackets_CCH 0
scalar SlicingScenario.node[16].nic.mac1609_4 ReceivedBroadcasts_CCH 0
scalar SlicingScenario.node[16].nic.mac1609_4 SentPackets_CCH 0
scalar SlicingScenario.node[16].nic.mac1609_4 SentAcknowledgements_CCH 0
scalar SlicingScenario.node[16].nic.mac1609_4 SNIRLostPackets_CCH 0
scalar SlicingScenario.node[16].nic.mac1609_4 RXTXLostPackets_CCH 0
scalar SlicingScenario.node[16].nic.mac1609_4 TotalLostPackets_CCH 0
scalar SlicingScenario.node[16].nic.mac1609_4 DroppedPacketsInMac_CCH 0
scalar SlicingScenario.node[16].nic.mac1609_4 TooLittleTime_CCH 0
scalar SlicingScenario.node[16].nic.mac1609_4 TimesIntoBackoff_CCH 0
scalar SlicingScenario.node[16].nic.mac1609_4 SlotsBackoff_CCH 0
scalar SlicingScenario.node[16].nic.mac1609_4 NumInternalContention_CCH 0
scalar SlicingScenario.node[16].nic.mac1609_4 RemainingPacketsInEDCA_CCH 0
scalar SlicingScenario.node[16].nic.mac1609_4 totalBusyTime_CCH 0
scalar SlicingScenario.node[16].nic.mac1609_4 ReceivedUnicastPackets_SCH 0
scalar SlicingScenario.node[16].nic.mac1609_4 ReceivedBroadcasts_SCH 18664
scalar SlicingScenario.node[16].nic.mac1609_4 SentPackets_SCH 0
scalar SlicingScenario.node[16].nic.mac1609_4 SentAcknowledgements_SCH 0
scalar SlicingScenario.node[16].nic.mac1609_4 SNIRLostPackets_SCH 0
scalar SlicingScenario.node[16].nic.mac1609_4 RXTXLostPackets_SCH 0
scalar SlicingScenario.node[16].nic.mac1609_4 TotalLostPackets_SCH 0
scalar SlicingScenario.node[16].nic.mac1609_4 DroppedPacketsInMac_SCH 0
scalar SlicingScenario.node[16].nic.mac1609_4 TooLittleTime_SCH 0
scalar SlicingScenario.node[16].nic.mac1609_4 TimesIntoBackoff_SCH 0
scalar SlicingScenario.node[16].nic.mac1609_4 SlotsBackoff_SCH 0
scalar SlicingScenario.node[16].nic.mac1609_4 NumInternalContention_SCH 0
scalar SlicingScenario.node[16].nic.mac1609_4 RemainingPacketsInEDCA_SCH 0
scalar SlicingScenario.node[16].nic.mac1609_4 totalBusyTime_SCH 37.05552
scalar SlicingScenario.node[16].veinsmobility startTime 7
scalar SlicingScenario.node[16].veinsmobility totalTime 94
scalar SlicingScenario.node[16].veinsmobility stopTime 102
scalar SlicingScenario.node[16].veinsmobility minSpeed 5.0155802368778
scalar SlicingScenario.node[16].veinsmobility maxSpeed 11.1050180694
[...]
scalar SlicingScenario.rsu[0].appl meanRxPacketSize_SCH_41_1903 0
scalar SlicingScenario.rsu[0].appl meanTxPacketSize_SCH_41_1903 0
scalar SlicingScenario.rsu[0].appl meanRxThroughput_SCH_41_1903 0
scalar SlicingScenario.rsu[0].appl meanTxThroughput_SCH_41_1903 0
scalar SlicingScenario.rsu[0].appl rxTimeOfService_SCH_41_1903 0
scalar SlicingScenario.rsu[0].appl txTimeOfService_SCH_41_1903 0
scalar SlicingScenario.rsu[0].appl txPackets_SCH_41_1927 0
scalar SlicingScenario.rsu[0].appl rxPackets_SCH_41_1927 0
scalar SlicingScenario.rsu[0].appl rxNeighborPackets_SCH_41_1927 0
scalar SlicingScenario.rsu[0].appl meanDelay_SCH_41_1927 0
scalar SlicingScenario.rsu[0].appl meanJitter_SCH_41_1927 0
scalar SlicingScenario.rsu[0].appl meanRxPacketSize_SCH_41_1927 0
scalar SlicingScenario.rsu[0].appl meanTxPacketSize_SCH_41_1927 0
scalar SlicingScenario.rsu[0].appl meanRxThroughput_SCH_41_1927 0
scalar SlicingScenario.rsu[0].appl meanTxThroughput_SCH_41_1927 0
scalar SlicingScenario.rsu[0].appl rxTimeOfService_SCH_41_1927 0
scalar SlicingScenario.rsu[0].appl txTimeOfService_SCH_41_1927 0
scalar SlicingScenario.rsu[0].appl txPackets_SCH_41_1939 0
scalar SlicingScenario.rsu[0].appl rxPackets_SCH_41_1939 0
scalar SlicingScenario.rsu[0].appl rxNeighborPackets_SCH_41_1939 0
scalar SlicingScenario.rsu[0].appl meanDelay_SCH_41_1939 0
scalar SlicingScenario.rsu[0].appl meanJitter_SCH_41_1939 0
scalar SlicingScenario.rsu[0].appl meanRxPacketSize_SCH_41_1939 0
scalar SlicingScenario.rsu[0].appl meanTxPacketSize_SCH_41_1939 0
scalar SlicingScenario.rsu[0].appl meanRxThroughput_SCH_41_1939 0
scalar SlicingScenario.rsu[0].appl meanTxThroughput_SCH_41_1939 0
scalar SlicingScenario.rsu[0].appl rxTimeOfService_SCH_41_1939 0
scalar SlicingScenario.rsu[0].appl txTimeOfService_SCH_41_1939 0
scalar SlicingScenario.rsu[0].appl txPackets_SCH_41_1951 0
scalar SlicingScenario.rsu[0].appl rxPackets_SCH_41_1951 0
scalar SlicingScenario.rsu[0].appl rxNeighborPackets_SCH_41_1951 0
scalar SlicingScenario.rsu[0].appl meanDelay_SCH_41_1951 0
scalar SlicingScenario.rsu[0].appl meanJitter_SCH_41_1951 0
scalar SlicingScenario.rsu[0].appl meanRxPacketSize_SCH_41_1951 0
scalar SlicingScenario.rsu[0].appl meanTxPacketSize_SCH_41_1951 0
scalar SlicingScenario.rsu[0].appl meanRxThroughput_SCH_41_1951 0
scalar SlicingScenario.rsu[0].appl meanTxThroughput_SCH_41_1951 0
scalar SlicingScenario.rsu[0].appl rxTimeOfService_SCH_41_1951 0
scalar SlicingScenario.rsu[0].appl txTimeOfService_SCH_41_1951 0
scalar SlicingScenario.rsu[0].appl txPackets_SCH_41_1957 0
scalar SlicingScenario.rsu[0].appl rxPackets_SCH_41_1957 0
scalar SlicingScenario.rsu[0].appl rxNeighborPackets_SCH_41_1957 0
scalar SlicingScenario.rsu[0].appl meanDelay_SCH_41_1957 0
scalar SlicingScenario.rsu[0].appl meanJitter_SCH_41_1957 0
scalar SlicingScenario.rsu[0].appl meanRxPacketSize_SCH_41_1957 0
scalar SlicingScenario.rsu[0].appl meanTxPacketSize_SCH_41_1957 0
scalar SlicingScenario.rsu[0].appl meanRxThroughput_SCH_41_1957 0
scalar SlicingScenario.rsu[0].appl meanTxThroughput_SCH_41_1957 0
scalar SlicingScenario.rsu[0].appl rxTimeOfService_SCH_41_1957 0
scalar SlicingScenario.rsu[0].appl txTimeOfService_SCH_41_1957 0
scalar SlicingScenario.rsu[0].appl txPackets_SCH_41_1975 0
scalar SlicingScenario.rsu[0].appl rxPackets_SCH_41_1975 0
scalar SlicingScenario.rsu[0].appl rxNeighborPackets_SCH_41_1975 0
scalar SlicingScenario.rsu[0].appl meanDelay_SCH_41_1975 0
scalar SlicingScenario.rsu[0].appl meanJitter_SCH_41_1975 0
scalar SlicingScenario.rsu[0].appl meanRxPacketSize_SCH_41_1975 0
scalar SlicingScenario.rsu[0].appl meanTxPacketSize_SCH_41_1975 0
scalar SlicingScenario.rsu[0].appl meanRxThroughput_SCH_41_1975 0
scalar SlicingScenario.rsu[0].appl meanTxThroughput_SCH_41_1975 0
scalar SlicingScenario.rsu[0].appl rxTimeOfService_SCH_41_1975 0
scalar SlicingScenario.rsu[0].appl txTimeOfService_SCH_41_1975 0
scalar SlicingScenario.rsu[0].appl txPackets_SCH_41_1987 0
scalar SlicingScenario.rsu[0].appl rxPackets_SCH_41_1987 0
scalar SlicingScenario.rsu[0].appl rxNeighborPackets_SCH_41_1987 0
scalar SlicingScenario.rsu[0].appl meanDelay_SCH_41_1987 0
scalar SlicingScenario.rsu[0].appl meanJitter_SCH_41_1987 0
scalar SlicingScenario.rsu[0].appl meanRxPacketSize_SCH_41_1987 0
scalar SlicingScenario.rsu[0].appl meanTxPacketSize_SCH_41_1987 0
scalar SlicingScenario.rsu[0].appl meanRxThroughput_SCH_41_1987 0
scalar SlicingScenario.rsu[0].appl meanTxThroughput_SCH_41_1987 0
scalar SlicingScenario.rsu[0].appl rxTimeOfService_SCH_41_1987 0
scalar SlicingScenario.rsu[0].appl txTimeOfService_SCH_41_1987 0
scalar SlicingScenario.rsu[0].appl txPackets_SCH_41_2005 0
scalar SlicingScenario.rsu[0].appl rxPackets_SCH_41_2005 0
scalar SlicingScenario.rsu[0].appl rxNeighborPackets_SCH_41_2005 0
scalar SlicingScenario.rsu[0].appl meanDelay_SCH_41_2005 0
scalar SlicingScenario.rsu[0].appl meanJitter_SCH_41_2005 0
scalar SlicingScenario.rsu[0].appl meanRxPacketSize_SCH_41_2005 0
scalar SlicingScenario.rsu[0].appl meanTxPacketSize_SCH_41_2005 0
scalar SlicingScenario.rsu[0].appl meanRxThroughput_SCH_41_2005 0
scalar SlicingScenario.rsu[0].appl meanTxThroughput_SCH_41_2005 0
scalar SlicingScenario.rsu[0].appl rxTimeOfService_SCH_41_2005 0
scalar SlicingScenario.rsu[0].appl txTimeOfService_SCH_41_2005 0
scalar SlicingScenario.rsu[0].appl txPackets_SCH_41_2011 0
scalar SlicingScenario.rsu[0].appl rxPackets_SCH_41_2011 0
scalar SlicingScenario.rsu[0].appl rxNeighborPackets_SCH_41_2011 0
scalar SlicingScenario.rsu[0].appl meanDelay_SCH_41_2011 0
scalar SlicingScenario.rsu[0].appl meanJitter_SCH_41_2011 0
scalar SlicingScenario.rsu[0].appl meanRxPacketSize_SCH_41_2011 0
scalar SlicingScenario.rsu[0].appl meanTxPacketSize_SCH_41_2011 0
scalar SlicingScenario.rsu[0].appl meanRxThroughput_SCH_41_2011 0
scalar SlicingScenario.rsu[0].appl meanTxThroughput_SCH_41_2011 0
scalar SlicingScenario.rsu[0].appl rxTimeOfService_SCH_41_2011 0
scalar SlicingScenario.rsu[0].appl txTimeOfService_SCH_41_2011 0
scalar SlicingScenario.rsu[0].appl txPackets_SCH_41_2017 0
scalar SlicingScenario.rsu[0].appl rxPackets_SCH_41_2017 0
scalar SlicingScenario.rsu[0].appl rxNeighborPackets_SCH_41_2017 0
scalar SlicingScenario.rsu[0].appl meanDelay_SCH_41_2017 0
scalar SlicingScenario.rsu[0].appl meanJitter_SCH_41_2017 0
scalar SlicingScenario.rsu[0].appl meanRxPacketSize_SCH_41_2017 0
scalar SlicingScenario.rsu[0].appl meanTxPacketSize_SCH_41_2017 0
scalar SlicingScenario.rsu[0].appl meanRxThroughput_SCH_41_2017 0
scalar SlicingScenario.rsu[0].appl meanTxThroughput_SCH_41_2017 0
scalar SlicingScenario.rsu[0].appl rxTimeOfService_SCH_41_2017 0
scalar SlicingScenario.rsu[0].appl txTimeOfService_SCH_41_2017 0
scalar SlicingScenario.rsu[0].appl txPackets_SCH_41_2041 0
scalar SlicingScenario.rsu[0].appl rxPackets_SCH_41_2041 0
scalar SlicingScenario.rsu[0].appl rxNeighborPackets_SCH_41_2041 0
scalar SlicingScenario.rsu[0].appl meanDelay_SCH_41_2041 0
scalar SlicingScenario.rsu[0].appl meanJitter_SCH_41_2041 0
scalar SlicingScenario.rsu[0].appl meanRxPacketSize_SCH_41_2041 0
scalar SlicingScenario.rsu[0].appl meanTxPacketSize_SCH_41_2041 0
scalar SlicingScenario.rsu[0].appl meanRxThroughput_SCH_41_2041 0
scalar SlicingScenario.rsu[0].appl meanTxThroughput_SCH_41_2041 0
scalar SlicingScenario.rsu[0].appl rxTimeOfService_SCH_41_2041 0
scalar SlicingScenario.rsu[0].appl txTimeOfService_SCH_41_2041 0
scalar SlicingScenario.rsu[0].appl txPackets_SCH_41_2047 0
scalar SlicingScenario.rsu[0].appl rxPackets_SCH_41_2047 0
scalar SlicingScenario.rsu[0].appl rxNeighborPackets_SCH_41_2047 0
scalar SlicingScenario.rsu[0].appl meanDelay_SCH_41_2047 0
scalar SlicingScenario.rsu[0].appl meanJitter_SCH_41_2047 0
scalar SlicingScenario.rsu[0].appl meanRxPacketSize_SCH_41_2047 0
scalar SlicingScenario.rsu[0].appl meanTxPacketSize_SCH_41_2047 0
scalar SlicingScenario.rsu[0].appl meanRxThroughput_SCH_41_2047 0
scalar SlicingScenario.rsu[0].appl meanTxThroughput_SCH_41_2047 0
scalar SlicingScenario.rsu[0].appl rxTimeOfService_SCH_41_2047 0
scalar SlicingScenario.rsu[0].appl txTimeOfService_SCH_41_2047 0
scalar SlicingScenario.rsu[0].appl txPackets_SCH_41_2053 0
scalar SlicingScenario.rsu[0].appl rxPackets_SCH_41_2053 0
scalar SlicingScenario.rsu[0].appl rxNeighborPackets_SCH_41_2053 0
scalar SlicingScenario.rsu[0].appl meanDelay_SCH_41_2053 0
scalar SlicingScenario.rsu[0].appl meanJitter_SCH_41_2053 0
scalar SlicingScenario.rsu[0].appl meanRxPacketSize_SCH_41_2053 0
scalar SlicingScenario.rsu[0].appl meanTxPacketSize_SCH_41_2053 0
scalar SlicingScenario.rsu[0].appl meanRxThroughput_SCH_41_2053 0
scalar SlicingScenario.rsu[0].appl meanTxThroughput_SCH_41_2053 0
scalar SlicingScenario.rsu[0].appl rxTimeOfService_SCH_41_2053 0
scalar SlicingScenario.rsu[0].appl txTimeOfService_SCH_41_2053 0
scalar SlicingScenario.rsu[0].appl txPackets_SCH_41_2065 0
scalar SlicingScenario.rsu[0].appl rxPackets_SCH_41_2065 0
scalar SlicingScenario.rsu[0].appl rxNeighborPackets_SCH_41_2065 0
scalar SlicingScenario.rsu[0].appl meanDelay_SCH_41_2065 0
scalar SlicingScenario.rsu[0].appl meanJitter_SCH_41_2065 0
scalar SlicingScenario.rsu[0].appl meanRxPacketSize_SCH_41_2065 0
scalar SlicingScenario.rsu[0].appl meanTxPacketSize_SCH_41_2065 0
scalar SlicingScenario.rsu[0].appl meanRxThroughput_SCH_41_2065 0
scalar SlicingScenario.rsu[0].appl meanTxThroughput_SCH_41_2065 0
scalar SlicingScenario.rsu[0].appl rxTimeOfService_SCH_41_2065 0
scalar SlicingScenario.rsu[0].appl txTimeOfService_SCH_41_2065 0
scalar SlicingScenario.rsu[0].appl txPackets_SCH_41_2095 0
scalar SlicingScenario.rsu[0].appl rxPackets_SCH_41_2095 0
scalar SlicingScenario.rsu[0].appl rxNeighborPackets_SCH_41_2095 0
scalar SlicingScenario.rsu[0].appl meanDelay_SCH_41_2095 0
scalar SlicingScenario.rsu[0].appl meanJitter_SCH_41_2095 0
scalar SlicingScenario.rsu[0].appl meanRxPacketSize_SCH_41_2095 0
scalar SlicingScenario.rsu[0].appl meanTxPacketSize_SCH_41_2095 0
scalar SlicingScenario.rsu[0].appl meanRxThroughput_SCH_41_2095 0
scalar SlicingScenario.rsu[0].appl meanTxThroughput_SCH_41_2095 0
scalar SlicingScenario.rsu[0].appl rxTimeOfService_SCH_41_2095 0
scalar SlicingScenario.rsu[0].appl txTimeOfService_SCH_41_2095 0
scalar SlicingScenario.rsu[0].appl txPackets_SCH_41_2107 0
scalar SlicingScenario.rsu[0].appl rxPackets_SCH_41_2107 0
scalar SlicingScenario.rsu[0].appl rxNeighborPackets_SCH_41_2107 0
scalar SlicingScenario.rsu[0].appl meanDelay_SCH_41_2107 0
scalar SlicingScenario.rsu[0].appl meanJitter_SCH_41_2107 0
scalar SlicingScenario.rsu[0].appl meanRxPacketSize_SCH_41_2107 0
scalar SlicingScenario.rsu[0].appl meanTxPacketSize_SCH_41_2107 0
scalar SlicingScenario.rsu[0].appl meanRxThroughput_SCH_41_2107 0
scalar SlicingScenario.rsu[0].appl meanTxThroughput_SCH_41_2107 0
scalar SlicingScenario.rsu[0].appl rxTimeOfService_SCH_41_2107 0
scalar SlicingScenario.rsu[0].appl txTimeOfService_SCH_41_2107 0
scalar SlicingScenario.rsu[0].appl txPackets_SCH_41_2125 0
scalar SlicingScenario.rsu[0].appl rxPackets_SCH_41_2125 0
scalar SlicingScenario.rsu[0].appl rxNeighborPackets_SCH_41_2125 0
scalar SlicingScenario.rsu[0].appl meanDelay_SCH_41_2125 0
scalar SlicingScenario.rsu[0].appl meanJitter_SCH_41_2125 0
scalar SlicingScenario.rsu[0].appl meanRxPacketSize_SCH_41_2125 0
scalar SlicingScenario.rsu[0].appl meanTxPacketSize_SCH_41_2125 0
scalar SlicingScenario.rsu[0].appl meanRxThroughput_SCH_41_2125 0
scalar SlicingScenario.rsu[0].appl meanTxThroughput_SCH_41_2125 0
scalar SlicingScenario.rsu[0].appl rxTimeOfService_SCH_41_2125 0
scalar SlicingScenario.rsu[0].appl txTimeOfService_SCH_41_2125 0
scalar SlicingScenario.rsu[0].appl txPackets_SCH_41_2131 0
scalar SlicingScenario.rsu[0].appl rxPackets_SCH_41_2131 0
scalar SlicingScenario.rsu[0].appl rxNeighborPackets_SCH_41_2131 0
scalar SlicingScenario.rsu[0].appl meanDelay_SCH_41_2131 0
scalar SlicingScenario.rsu[0].appl meanJitter_SCH_41_2131 0
scalar SlicingScenario.rsu[0].appl meanRxPacketSize_SCH_41_2131 0
scalar SlicingScenario.rsu[0].appl meanTxPacketSize_SCH_41_2131 0
scalar SlicingScenario.rsu[0].appl meanRxThroughput_SCH_41_2131 0
scalar SlicingScenario.rsu[0].appl meanTxThroughput_SCH_41_2131 0
scalar SlicingScenario.rsu[0].appl rxTimeOfService_SCH_41_2131 0
scalar SlicingScenario.rsu[0].appl txTimeOfService_SCH_41_2131 0
scalar SlicingScenario.rsu[0].appl txPackets_SCH_41_2143 0
scalar SlicingScenario.rsu[0].appl rxPackets_SCH_41_2143 0
scalar SlicingScenario.rsu[0].appl rxNeighborPackets_SCH_41_2143 0
scalar SlicingScenario.rsu[0].appl meanDelay_SCH_41_2143 0
scalar SlicingScenario.rsu[0].appl meanJitter_SCH_41_2143 0
scalar SlicingScenario.rsu[0].appl meanRxPacketSize_SCH_41_2143 0
scalar SlicingScenario.rsu[0].appl meanTxPacketSize_SCH_41_2143 0
scalar SlicingScenario.rsu[0].appl meanRxThroughput_SCH_41_2143 0
scalar SlicingScenario.rsu[0].appl meanTxThroughput_SCH_41_2143 0
scalar SlicingScenario.rsu[0].appl rxTimeOfService_SCH_41_2143 0
scalar SlicingScenario.rsu[0].appl txTimeOfService_SCH_41_2143 0
scalar SlicingScenario.rsu[0].appl txPackets_SCH_41_2149 0
scalar SlicingScenario.rsu[0].appl rxPackets_SCH_41_2149 0
scalar SlicingScenario.rsu[0].appl rxNeighborPackets_SCH_41_2149 0
scalar SlicingScenario.rsu[0].appl meanDelay_SCH_41_2149 0
scalar SlicingScenario.rsu[0].appl meanJitter_SCH_41_2149 0
scalar SlicingScenario.rsu[0].appl meanRxPacketSize_SCH_41_2149 0
scalar SlicingScenario.rsu[0].appl meanTxPacketSize_SCH_41_2149 0
scalar SlicingScenario.rsu[0].appl meanRxThroughput_SCH_41_2149 0
scalar SlicingScenario.rsu[0].appl meanTxThroughput_SCH_41_2149 0
scalar SlicingScenario.rsu[0].appl rxTimeOfService_SCH_41_2149 0
scalar SlicingScenario.rsu[0].appl txTimeOfService_SCH_41_2149 0
scalar SlicingScenario.rsu[0].appl txPackets_SCH_41_2173 0
scalar SlicingScenario.rsu[0].appl rxPackets_SCH_41_2173 0
scalar SlicingScenario.rsu[0].appl rxNeighborPackets_SCH_41_2173 0
scalar SlicingScenario.rsu[0].appl meanDelay_SCH_41_2173 0
scalar SlicingScenario.rsu[0].appl meanJitter_SCH_41_2173 0
scalar SlicingScenario.rsu[0].appl meanRxPacketSize_SCH_41_2173 0
scalar SlicingScenario.rsu[0].appl meanTxPacketSize_SCH_41_2173 0
scalar SlicingScenario.rsu[0].appl meanRxThroughput_SCH_41_2173 0
scalar SlicingScenario.rsu[0].appl meanTxThroughput_SCH_41_2173 0
scalar SlicingScenario.rsu[0].appl rxTimeOfService_SCH_41_2173 0
scalar SlicingScenario.rsu[0].appl txTimeOfService_SCH_41_2173 0
scalar SlicingScenario.rsu[0].appl txPackets_SCH_41_2203 0
scalar SlicingScenario.rsu[0].appl rxPackets_SCH_41_2203 0
scalar SlicingScenario.rsu[0].appl rxNeighborPackets_SCH_41_2203 0
scalar SlicingScenario.rsu[0].appl meanDelay_SCH_41_2203 0
scalar SlicingScenario.rsu[0].appl meanJitter_SCH_41_2203 0
scalar SlicingScenario.rsu[0].appl meanRxPacketSize_SCH_41_2203 0
scalar SlicingScenario.rsu[0].appl meanTxPacketSize_SCH_41_2203 0
scalar SlicingScenario.rsu[0].appl meanRxThroughput_SCH_41_2203 0
scalar SlicingScenario.rsu[0].appl meanTxThroughput_SCH_41_2203 0
scalar SlicingScenario.rsu[0].appl rxTimeOfService_SCH_41_2203 0
scalar SlicingScenario.rsu[0].appl txTimeOfService_SCH_41_2203 0
scalar SlicingScenario.rsu[0].appl txPackets_SCH_41_2215 0
scalar SlicingScenario.rsu[0].appl rxPackets_SCH_41_2215 0
scalar SlicingScenario.rsu[0].appl rxNeighborPackets_SCH_41_2215 0
scalar SlicingScenario.rsu[0].appl meanDelay_SCH_41_2215 0
scalar SlicingScenario.rsu[0].appl meanJitter_SCH_41_2215 0
scalar SlicingScenario.rsu[0].appl meanRxPacketSize_SCH_41_2215 0
scalar SlicingScenario.rsu[0].appl meanTxPacketSize_SCH_41_2215 0
scalar SlicingScenario.rsu[0].appl meanRxThroughput_SCH_41_2215 0
scalar SlicingScenario.rsu[0].appl meanTxThroughput_SCH_41_2215 0
scalar SlicingScenario.rsu[0].appl rxTimeOfService_SCH_41_2215 0
scalar SlicingScenario.rsu[0].appl txTimeOfService_SCH_41_2215 0
scalar SlicingScenario.rsu[0].appl txPackets_SCH_41_2227 0
scalar SlicingScenario.rsu[0].appl rxPackets_SCH_41_2227 0
scalar SlicingScenario.rsu[0].appl rxNeighborPackets_SCH_41_2227 0
scalar SlicingScenario.rsu[0].appl meanDelay_SCH_41_2227 0
scalar SlicingScenario.rsu[0].appl meanJitter_SCH_41_2227 0
scalar SlicingScenario.rsu[0].appl meanRxPacketSize_SCH_41_2227 0
scalar SlicingScenario.rsu[0].appl meanTxPacketSize_SCH_41_2227 0
scalar SlicingScenario.rsu[0].appl meanRxThroughput_SCH_41_2227 0
scalar SlicingScenario.rsu[0].appl meanTxThroughput_SCH_41_2227 0
scalar SlicingScenario.rsu[0].appl rxTimeOfService_SCH_41_2227 0
scalar SlicingScenario.rsu[0].appl txTimeOfService_SCH_41_2227 0
scalar SlicingScenario.rsu[0].appl txPackets_SCH_41_2233 0
scalar SlicingScenario.rsu[0].appl rxPackets_SCH_41_2233 0
scalar SlicingScenario.rsu[0].appl rxNeighborPackets_SCH_41_2233 0
scalar SlicingScenario.rsu[0].appl meanDelay_SCH_41_2233 0
scalar SlicingScenario.rsu[0].appl meanJitter_SCH_41_2233 0
scalar SlicingScenario.rsu[0].appl meanRxPacketSize_SCH_41_2233 0
scalar SlicingScenario.rsu[0].appl meanTxPacketSize_SCH_41_2233 0
scalar SlicingScenario.rsu[0].appl meanRxThroughput_SCH_41_2233 0
scalar SlicingScenario.rsu[0].appl meanTxThroughput_SCH_41_2233 0
scalar SlicingScenario.rsu[0].appl rxTimeOfService_SCH_41_2233 0
scalar SlicingScenario.rsu[0].appl txTimeOfService_SCH_41_2233 0
scalar SlicingScenario.rsu[0].appl txPackets_SCH_41_2239 0
scalar SlicingScenario.rsu[0].appl rxPackets_SCH_41_2239 0
scalar SlicingScenario.rsu[0].appl rxNeighborPackets_SCH_41_2239 0
scalar SlicingScenario.rsu[0].appl meanDelay_SCH_41_2239 0
scalar SlicingScenario.rsu[0].appl meanJitter_SCH_41_2239 0
scalar SlicingScenario.rsu[0].appl meanRxPacketSize_SCH_41_2239 0
scalar SlicingScenario.rsu[0].appl meanTxPacketSize_SCH_41_2239 0
scalar SlicingScenario.rsu[0].appl meanRxThroughput_SCH_41_2239 0
scalar SlicingScenario.rsu[0].appl meanTxThroughput_SCH_41_2239 0
scalar SlicingScenario.rsu[0].appl rxTimeOfService_SCH_41_2239 0
scalar SlicingScenario.rsu[0].appl txTimeOfService_SCH_41_2239 0
scalar SlicingScenario.rsu[0].nic.phy80211p busyTime 0
scalar SlicingScenario.rsu[0].nic.phy80211p ncollisions 0
scalar SlicingScenario.rsu[0].nic.phy80211p UnderSensitivityPackets 0
scalar SlicingScenario.rsu[0].nic.mac1609_4 ReceivedUnicastPackets_CCH 0
scalar SlicingScenario.rsu[0].nic.mac1609_4 ReceivedBroadcasts_CCH 0
scalar SlicingScenario.rsu[0].nic.mac1609_4 SentPackets_CCH 0
scalar SlicingScenario.rsu[0].nic.mac1609_4 SentAcknowledgements_CCH 0
scalar SlicingScenario.rsu[0].nic.mac1609_4 SNIRLostPackets_CCH 0
scalar SlicingScenario.rsu[0].nic.mac1609_4 RXTXLostPackets_CCH 0
scalar SlicingScenario.rsu[0].nic.mac1609_4 TotalLostPackets_CCH 0
scalar SlicingScenario.rsu[0].nic.mac1609_4 DroppedPacketsInMac_CCH 0
scalar SlicingScenario.rsu[0].nic.mac1609_4 TooLittleTime_CCH 0
scalar SlicingScenario.rsu[0].nic.mac1609_4 TimesIntoBackoff_CCH 0
scalar SlicingScenario.rsu[0].nic.mac1609_4 SlotsBackoff_CCH 0
scalar SlicingScenario.rsu[0].nic.mac1609_4 NumInternalContention_CCH 0
scalar SlicingScenario.rsu[0].nic.mac1609_4 RemainingPacketsInEDCA_CCH 0
scalar SlicingScenario.rsu[0].nic.mac1609_4 totalBusyTime_CCH 0
scalar SlicingScenario.rsu[0].nic.mac1609_4 ReceivedUnicastPackets_SCH 0
scalar SlicingScenario.rsu[0].nic.mac1609_4 ReceivedBroadcasts_SCH 0
scalar SlicingScenario.rsu[0].nic.mac1609_4 SentPackets_SCH 62416
scalar SlicingScenario.rsu[0].nic.mac1609_4 SentAcknowledgements_SCH 0
scalar SlicingScenario.rsu[0].nic.mac1609_4 SNIRLostPackets_SCH 0
scalar SlicingScenario.rsu[0].nic.mac1609_4 RXTXLostPackets_SCH 0
scalar SlicingScenario.rsu[0].nic.mac1609_4 TotalLostPackets_SCH 0
scalar SlicingScenario.rsu[0].nic.mac1609_4 DroppedPacketsInMac_SCH 0
scalar SlicingScenario.rsu[0].nic.mac1609_4 TooLittleTime_SCH 47299
scalar SlicingScenario.rsu[0].nic.mac1609_4 TimesIntoBackoff_SCH 64926
scalar SlicingScenario.rsu[0].nic.mac1609_4 SlotsBackoff_SCH 217473
scalar SlicingScenario.rsu[0].nic.mac1609_4 NumInternalContention_SCH 0
scalar SlicingScenario.rsu[0].nic.mac1609_4 RemainingPacketsInEDCA_SCH 531788
scalar SlicingScenario.rsu[0].nic.mac1609_4 totalBusyTime_SCH 123.945808

